45
isomer_0000.log	Energy: -113675.8852964
B         -2.50828       -1.75993       -0.48790
B         -2.42680       -3.33574        0.03863
B         -1.04626       -4.15733        0.12247
B          0.35219       -3.38479       -0.51456
B         -1.12871       -0.84886       -1.04054
B          1.78797       -0.83037       -0.91380
B          1.74938       -4.14389        0.24606
B         -3.95566       -0.91120       -0.21562
B          1.80277       -2.53237       -0.48897
B         -3.80894       -2.53783        0.29275
B          0.34316       -4.74603        0.35136
B          3.09279       -3.27960        0.26637
B          3.17357       -1.67952       -0.26019
B          4.53172       -0.79652        0.23949
B          0.31208        1.83058       -1.08665
B          1.72326        2.55165       -0.42927
B          3.12807        1.73388       -0.21966
B          4.54706        0.89546        0.14337
B          4.32534        2.50059        0.77019
B          3.00756        3.34177        0.27840
B          1.64059        4.17036        0.25800
B          0.26796        3.40327       -0.53957
B          0.21809        4.74820        0.35243
B         -2.51497        3.30378        0.03644
B         -1.15840        4.14925        0.10812
B         -2.56370        1.73018       -0.53112
B         -3.86996        2.48442        0.27630
B         -3.98428        0.84469       -0.22432
B         -1.18670        2.57757       -0.78924
B         -1.11847       -2.59017       -0.76494
B          3.29333        0.01633       -0.60932
B         -1.17071        0.85094       -1.06865
B          4.40787       -2.44401        0.74892
B         -5.05997       -1.73997        0.86483
B         -5.19534       -0.04571        0.52308
B         -5.10455        1.65043        0.84547
B         -6.10519        0.70506        1.60541
B         -6.08437       -0.81563        1.61265
B          1.71671        0.84348       -0.78447
B         -2.60942       -0.01636       -0.74589
B          0.37033       -1.82497       -1.11765
B          5.47488       -1.51810        1.30058
B          5.61998        0.03407        1.30453
B          5.37122        1.56988        1.33866
B          0.34278        0.00305       -1.09220
