45
isomer_0001.log	Energy: -112948.1494220
B         -2.57370       -1.66701       -0.39787
B         -2.56990       -3.30387       -0.01279
B         -1.16525       -4.13921        0.22375
B          0.29158       -3.31487       -0.33816
B         -1.11245       -0.78231       -0.71557
B          1.76152       -0.82443       -0.81892
B          1.68281       -4.10419        0.34432
B         -4.02812       -0.78643       -0.31783
B          1.67900       -2.42667       -0.25286
B         -3.97287       -2.47726        0.14379
B          0.25604       -4.76125        0.49476
B          3.11838       -3.26331        0.34711
B          3.14822       -1.64374       -0.22451
B          4.61449       -0.83571        0.26049
B          0.33781        1.73772       -0.88427
B          1.72724        2.42879       -0.26893
B          3.18062        1.61702       -0.23530
B          4.63057        0.78324        0.25513
B          4.48001        2.34327        0.49623
B          3.18300        3.24062        0.32559
B          1.76442        4.10982        0.31714
B          0.35774        3.34380       -0.36020
B          0.35101        4.79608        0.46313
B         -2.50337        3.39181       -0.03495
B         -1.08238        4.20063        0.19615
B         -2.53972        1.75284       -0.40919
B         -3.92248        2.59429        0.12701
B         -4.01135        0.90189       -0.32342
B         -1.10252        2.56231       -0.58347
B         -1.15288       -2.50602       -0.56669
B          3.24427       -0.11547       -0.62671
B         -1.09636        0.83719       -0.72093
B          4.43297       -2.39081        0.51190
B         -5.28590       -1.65773        0.65340
B         -5.26828       -0.02744        0.41406
B         -5.25150        1.80442        0.64194
B         -6.42246        0.86322        1.25455
B         -6.43788       -0.68942        1.25969
B          1.77788        0.82151       -0.82437
B         -2.76885       -0.41392       -1.11034
B          0.30353       -1.71222       -0.87286
B          5.94987       -1.69413        0.71434
B          6.16235        0.01729        0.77246
B          5.98181        1.74916        0.77356
B         -0.14893       -0.35950       -0.09035
