45
isomer_0010.log	Energy: -113377.7277088
B         -2.01905       -1.46805       -0.11361
B         -2.53601       -3.16980       -0.46470
B         -1.41719       -4.27405       -0.54120
B          0.16640       -3.36747       -1.10984
B         -0.90868       -0.55008       -1.08994
B          1.19337       -0.67244       -0.71950
B          1.43276       -4.11501       -0.01217
B         -3.39674       -0.61957        0.29066
B          1.34732       -2.38395       -0.27640
B         -3.58193       -2.22120        0.26998
B         -0.02108       -4.65510       -0.08213
B          2.68332       -3.27348        0.25278
B          2.83379       -1.65501       -0.18421
B          4.17098       -0.87389        0.35221
B          0.37659        1.87050       -1.29988
B          1.72598        2.59104       -0.62405
B          3.02612        1.73122       -0.18038
B          4.29259        0.77330        0.43399
B          4.21180        2.45223        0.84752
B          3.01409        3.32612        0.20977
B          1.70236        4.24069        0.01869
B          0.37185        3.56296       -0.87811
B          0.31894        4.88782       -0.00841
B         -2.43138        3.57159       -0.28580
B         -1.08991        4.33037       -0.36440
B         -2.34160        1.82169       -0.51210
B         -3.59696        2.71517        0.23518
B         -3.49876        1.07952        0.26239
B         -1.09724        2.68189       -1.06937
B         -1.28511       -2.35891       -1.39629
B          2.97935       -0.00293       -0.43808
B         -1.08019        1.04757       -1.21566
B          3.98503       -2.47463        0.88549
B         -4.75527       -1.46212        1.01980
B         -4.53764        0.21110        1.16708
B         -4.81890        1.86174        0.98124
B         -5.93314        0.93980        1.57365
B         -5.91017       -0.56232        1.57003
B          1.62172        0.91167       -0.89564
B         -0.88279       -2.96138        0.34621
B          0.27682       -1.77236       -1.63580
B          5.04219       -1.60902        1.50370
B          5.32772       -0.07467        1.53172
B          5.21349        1.47313        1.51333
B         -0.17483       -1.50368        0.13226
