45
isomer_1000.log	Energy: -113650.9572668
B         -2.48799       -1.82441       -0.36641
B         -2.38469       -3.39831        0.15918
B         -0.96933       -4.17705        0.22998
B          0.41985       -3.37235       -0.47329
B         -1.12653       -0.88252       -0.74644
B          1.80790       -0.74781       -0.89725
B          1.84150       -4.10997        0.24251
B         -3.92233       -0.97155       -0.16792
B          1.85593       -2.48246       -0.45484
B         -3.81049       -2.61836        0.32308
B          0.44831       -4.71814        0.42043
B          3.18600       -3.23244        0.19176
B          3.23796       -1.64566       -0.36028
B          4.60218       -0.74275        0.09873
B          0.28721        1.82564       -0.99984
B          1.66254        2.54823       -0.31970
B          3.09762        1.78090       -0.19140
B          4.53660        0.94218        0.14817
B          4.33239        2.53802        0.76530
B          2.94571        3.34627        0.39065
B          1.55130        4.15496        0.40238
B          0.21061        3.40316       -0.43942
B          0.11439        4.70623        0.48860
B         -2.62925        3.30667       -0.05596
B         -1.26310        4.13098        0.14371
B         -2.62827        1.72117       -0.62595
B         -4.00464        2.46461        0.08400
B         -3.99491        0.79596       -0.29145
B         -1.23911        2.57752       -0.71820
B         -1.06050       -2.60765       -0.60353
B          3.29394        0.08032       -0.61871
B         -1.13761        0.85593       -0.88609
B          4.53649       -2.39145        0.57463
B         -5.10570       -1.80887        0.78088
B         -5.23464       -0.11790        0.40393
B         -5.24540        1.60536        0.61719
B         -6.25866        0.64884        1.36009
B         -6.19766       -0.87366        1.43127
B          1.71193        0.89030       -0.84082
B         -2.54762       -0.04531       -0.51138
B          0.41139       -1.78855       -1.00083
B          5.62301       -1.46524        1.08647
B          5.74158        0.10032        1.13070
B          5.47482        1.64083        1.22768
B          0.31728       -0.04203       -1.13159
