45
isomer_1002.log	Energy: -113397.0370882
B         -2.65853       -1.38581       -0.47932
B         -2.63563       -3.09760        0.13890
B         -1.52530       -3.94691        0.83841
B          0.12757       -3.24052       -0.58422
B         -1.26123       -0.64465       -1.00974
B          1.71584       -0.78587       -0.68052
B          1.42372       -4.01732        0.32287
B         -4.01668       -0.62268       -0.23141
B          1.61932       -2.50666       -0.42547
B         -4.01034       -2.19211        0.19290
B         -0.06468       -4.39636        0.60347
B          2.89562       -3.32091        0.27396
B          3.10942       -1.75071       -0.28173
B          4.61356       -0.95094       -0.07107
B          0.43081        1.84551       -1.12844
B          1.87773        2.55884       -0.37890
B          3.24619        1.68074       -0.20583
B          4.57163        0.70135        0.24180
B          4.55193        2.35908        0.74423
B          3.22328        3.25220        0.34293
B          1.85576        4.08621        0.35294
B          0.44995        3.44659       -0.53954
B          0.42903        4.62631        0.53648
B         -2.39011        3.44082        0.00285
B         -0.99352        4.14795        0.18514
B         -2.49500        1.80568       -0.57397
B         -3.77518        2.63506        0.21347
B         -3.90521        1.04872       -0.19093
B         -1.09578        2.66561       -0.66726
B         -1.34030       -2.29597       -0.76383
B          3.31066       -0.03037       -0.62527
B         -1.13620        0.98995       -1.03716
B          4.28573       -2.57544        0.61309
B         -5.31320       -1.42328        0.66053
B         -5.30411        0.28190        0.34470
B         -5.11241        1.92951        0.70293
B         -6.24230        1.03956        1.38740
B         -6.33807       -0.45534        1.35012
B          1.85869        0.91806       -0.89609
B         -1.33901       -3.96200       -0.74029
B          0.26006       -1.54328       -0.90749
B          5.40411       -1.67562        1.12368
B          5.73853       -0.17292        1.12419
B          5.63518        1.40634        1.18731
B          0.31846        0.12729       -1.06580
