45
isomer_1003.log	Energy: -113498.3421805
B          2.36564       -1.55006       -0.14138
B          2.45994       -3.29906       -0.16763
B          1.07180       -4.10513       -0.26790
B         -0.36743       -3.36425        0.35397
B          1.02079       -0.81454        0.69677
B         -1.73662       -0.81074        0.77686
B         -1.76216       -4.14139       -0.27386
B          3.83828       -0.89016        0.37254
B         -1.78611       -2.48804        0.39751
B          3.84279       -2.49849       -0.27690
B         -0.37080       -4.72674       -0.45463
B         -3.15433       -3.28419       -0.17009
B         -3.23134       -1.72114        0.30592
B         -4.66519       -0.83035        0.09000
B         -0.38011        1.70861        0.85217
B         -1.78785        2.48747        0.39907
B         -3.23270        1.71982        0.30795
B         -4.66628        0.82873        0.09226
B         -4.53252        2.46999       -0.49520
B         -3.15665        3.28355       -0.16683
B         -1.76488        4.14149       -0.27159
B         -0.36935        3.36381        0.35292
B         -0.37382        4.72721       -0.45383
B          2.45762        3.29953       -0.17051
B          1.06916        4.10560       -0.26864
B          2.36440        1.55030       -0.14339
B          3.84097        2.49973       -0.27923
B          3.83742        0.89182        0.37150
B          1.11281        2.56833        0.43923
B          1.11439       -2.56843        0.44173
B         -3.27024       -0.00085        0.67854
B          1.02040        0.81462        0.69603
B         -4.53092       -2.47124       -0.49784
B          5.19004       -1.70475       -0.44301
B          5.12458        0.00108       -0.25713
B          5.18878        1.70675       -0.44489
B          6.44092        0.76682       -0.70184
B          6.44149       -0.76422       -0.70099
B         -1.73693        0.80963        0.77567
B          2.10963       -0.00013       -0.60312
B         -0.37927       -1.70926        0.85406
B         -5.66775       -1.54462       -0.91536
B         -5.86266       -0.00085       -0.88933
B         -5.66884        1.54299       -0.91307
B          2.54287        0.00077        1.11350
