45
isomer_1005.log	Energy: -109964.2906702
B          2.63151        1.68196       -0.43303
B          2.63359        3.31995       -0.05280
B          1.23221        4.15902        0.18991
B         -0.22981        3.33616       -0.36056
B          1.16644        0.79948       -0.73908
B         -1.70802        0.84749       -0.82485
B         -1.61511        4.13051        0.32813
B          4.08451        0.79849       -0.35933
B         -1.61857        2.45122       -0.26408
B          4.03573        2.49078        0.09759
B         -0.18605        4.78492        0.46782
B         -3.05243        3.29274        0.34226
B         -3.08927        1.67155       -0.22434
B         -4.55424        0.86812        0.27208
B         -0.29022       -1.71791       -0.89136
B         -1.67731       -2.40415       -0.26542
B         -3.12871       -1.58916       -0.22524
B         -4.57382       -0.75080        0.27163
B         -4.42512       -2.31043        0.51644
B         -3.13111       -3.21107        0.34047
B         -1.71447       -4.08336        0.32587
B         -0.31036       -3.32238       -0.36240
B         -0.30166       -4.77223        0.46519
B          2.55260       -3.37561       -0.05464
B          1.13133       -4.18066        0.18761
B          2.59015       -1.73783       -0.43397
B          3.97438       -2.58068        0.09620
B          4.06409       -0.88980       -0.35980
B          1.15017       -2.54471       -0.59698
B          1.21148        2.52353       -0.59558
B         -3.19107        0.14231       -0.62140
B          1.14685       -0.82000       -0.73953
B         -4.36785        2.42356        0.51775
B          5.35012        1.66994        0.60153
B          5.32753        0.03899        0.36716
B          5.30824       -1.79215        0.60058
B          6.48496       -0.85167        1.20316
B          6.50375        0.70094        1.20359
B         -1.72793       -0.79842       -0.82530
B          1.03469        1.07006       -0.22795
B         -0.24849        1.73197       -0.89041
B         -5.88496        1.73076        0.73160
B         -6.10074        0.01998        0.79612
B         -5.92390       -1.71226        0.80125
B         -0.56312       -1.23915       -0.37588
