45
isomer_1006.log	Energy: -113429.7752223
B         -2.61006        1.59524        0.56659
B         -2.63147        3.34686        0.03185
B         -1.28319        4.13881       -0.06337
B          0.20523        3.41447        0.53522
B         -1.22173        0.84377        0.81834
B          1.71491        0.93793        0.93881
B          1.57305        4.19097       -0.23244
B         -4.00642        0.87058        0.26669
B          1.65203        2.56481        0.40206
B         -3.92325        2.47445       -0.09660
B          0.13297        4.74275       -0.32841
B          2.95359        3.36309       -0.30381
B          3.09166        1.80813        0.24861
B          4.41770        0.86634       -0.30239
B          0.31606       -1.77607        1.49595
B          1.62194       -2.39928        0.30089
B          3.12097       -1.63905        0.21340
B          4.57692       -0.79317       -0.01481
B          4.35116       -2.42491       -0.64850
B          3.01690       -3.23818       -0.24516
B          1.66908       -4.10122       -0.15021
B          0.26795       -3.29603        0.66062
B          0.28669       -4.69475       -0.20996
B         -2.50631       -3.33151       -0.15439
B         -1.12271       -4.11898       -0.11509
B         -2.59975       -1.68699        0.46499
B         -3.81306       -2.49849       -0.32727
B         -3.95221       -0.90330        0.17561
B         -1.14109       -2.43535        0.34848
B         -1.26476        2.50804        0.50833
B          3.21238        0.07106        0.56841
B         -1.18310       -0.80327        0.78198
B          4.30998        2.53522       -0.73559
B         -5.24496        1.65345       -0.60419
B         -5.23238       -0.02623       -0.32991
B         -5.16334       -1.64376       -0.79395
B         -6.22608       -0.73152       -1.43157
B         -6.27147        0.76242       -1.33734
B          1.66815       -0.74066        0.61794
B          0.21058       -1.34326       -0.16742
B          0.23661        1.75157        0.89823
B          5.44655        1.62695       -1.21926
B          5.64930        0.06492       -1.17722
B          5.44611       -1.47428       -1.15488
B          0.24885       -0.03156        1.30073
