45
isomer_1007.log	Energy: -111461.5372491
B         -2.60502       -1.62667       -0.43067
B         -2.60392       -3.28310       -0.04491
B         -1.19599       -4.13998        0.19737
B          0.28173       -3.30063       -0.36175
B         -1.14093       -0.75833       -0.73866
B          1.74817       -0.79296       -0.82819
B          1.66721       -4.09107        0.31957
B         -4.04520       -0.73267       -0.35414
B          1.66765       -2.40663       -0.26852
B         -3.99884       -2.42793        0.10382
B          0.23874       -4.74669        0.46221
B          3.09490       -3.24608        0.33118
B          3.13091       -1.62098       -0.23071
B          4.59169       -0.80961        0.26225
B          0.32544        1.81002       -0.88939
B          1.71879        2.48041       -0.26543
B          3.16680        1.65919       -0.22779
B          4.60762        0.81422        0.26408
B          4.46688        2.37869        0.51609
B          3.16708        3.27976        0.33848
B          1.75576        4.15744        0.32873
B          0.34954        3.40784       -0.35711
B          0.34850        4.84443        0.47022
B         -2.50937        3.46422       -0.04244
B         -1.08664        4.26788        0.19653
B         -2.55273        1.82943       -0.42668
B         -3.93166        2.65480        0.10913
B         -4.02269        0.97081       -0.35055
B         -1.11276        2.64138       -0.58988
B         -1.18393       -2.47855       -0.60272
B          3.23164       -0.07763       -0.62566
B         -1.11614        0.93362       -0.73752
B          4.41757       -2.37231        0.50986
B         -5.30410       -1.60096        0.60838
B         -5.27867        0.03544        0.37518
B         -5.25586        1.85847        0.61130
B         -6.42330        0.91616        1.21222
B         -6.44824       -0.62869        1.21294
B          1.76628        0.86993       -0.82778
B         -1.29372        0.04034       -0.80265
B          0.28824       -1.68522       -0.89068
B          5.91107       -1.65769        0.71715
B          6.12083        0.03902        0.78169
B          5.94506        1.75243        0.79002
B         -0.89838       -2.62152        0.17541
