45
isomer_1009.log	Energy: -113156.3717689
B         -2.41919        1.70615        0.50432
B         -2.33942        3.45670       -0.06923
B         -0.97064        4.17052       -0.18309
B          0.46349        3.42061        0.40803
B         -1.04303        0.99705        1.00901
B          1.71564        0.79513        1.00829
B          1.87375        4.07115       -0.34066
B         -3.79812        1.01166        0.24996
B          1.86365        2.46145        0.43100
B         -3.64940        2.59763       -0.25303
B          0.50679        4.69250       -0.51567
B          3.19871        3.14585       -0.27587
B          3.21658        1.62458        0.27945
B          4.50208        0.68265       -0.19038
B          0.25104       -1.63581        1.15694
B          1.58887       -2.49685        0.32068
B          3.03492       -1.76987        0.21607
B          4.39264       -0.95144       -0.21163
B          4.34257       -2.60723       -0.77048
B          2.85600       -3.22234       -0.47249
B          1.44092       -4.01249       -0.56270
B          0.13994       -3.32194        0.23697
B          0.01829       -4.55996       -0.73209
B         -2.69240       -3.19516       -0.09450
B         -1.38996       -3.97798       -0.34683
B         -2.58073       -1.47438        0.71255
B         -3.87265       -2.35863       -0.19822
B         -3.90371       -0.71797        0.25485
B         -1.26234       -2.54877        0.58899
B         -1.02715        2.63923        0.62441
B          3.22203       -0.10837        0.59860
B         -1.15150       -0.53320        1.59200
B          4.60677        2.38079       -0.58759
B         -4.97629        1.85730       -0.82524
B         -4.97975        0.17206       -0.56158
B         -5.10075       -1.44471       -0.79793
B         -6.00171       -0.48886       -1.63863
B         -5.95229        1.02878       -1.62054
B          1.64191       -0.85491        0.97426
B         -1.24467       -1.84767        2.09278
B          0.45062        1.78267        1.03045
B          5.65780        1.39844       -1.03345
B          5.74887       -0.15664       -1.06403
B          5.46574       -1.67370       -1.15272
B         -1.84393       -0.13399        0.20899
