45
isomer_1011.log	Energy: -112732.1038832
B         -2.70118        1.77688        0.45908
B         -2.65286        3.42775        0.08131
B         -1.26695        4.26585       -0.13542
B          0.18624        3.45209        0.38390
B         -1.32913        0.99169        0.75440
B          1.70374        0.89114        0.81475
B          1.58214        4.21282       -0.28431
B         -4.05599        0.85233        0.35357
B          1.61300        2.53973        0.27482
B         -4.01635        2.52466       -0.07462
B          0.17033        4.82131       -0.40221
B          3.00953        3.35893       -0.32579
B          3.07761        1.73468        0.20798
B          4.53220        0.90081       -0.29510
B          0.20624       -1.68229        0.80778
B          1.73573       -2.43270        0.22042
B          3.13422       -1.59535        0.17754
B          4.52708       -0.72560       -0.31070
B          4.44461       -2.31547       -0.60620
B          3.11119       -3.21935       -0.40328
B          1.70242       -4.09679       -0.39781
B          0.29359       -3.38605        0.31335
B          0.30511       -4.71717       -0.51567
B         -2.55588       -3.41619       -0.01707
B         -1.15758       -4.19810       -0.25434
B         -2.63142       -1.74755        0.38238
B         -3.95256       -2.52709       -0.17403
B         -4.03461       -0.90163        0.31419
B         -1.23266       -2.61271        0.55512
B         -1.29980        2.67188        0.60749
B          3.19969        0.14520        0.58597
B         -1.22613       -0.85904        0.67714
B          4.39984        2.50487       -0.55601
B         -5.27291        1.69887       -0.60341
B         -5.24076        0.04559       -0.39675
B         -5.20577       -1.72037       -0.66122
B         -6.31671       -0.77364       -1.24032
B         -6.37671        0.70629       -1.23273
B          1.74549       -0.79301        0.81966
B         -0.35665        0.29350       -0.07111
B          0.23265        1.85133        0.87334
B          5.76473        1.67447       -0.75199
B          5.94571        0.09473       -0.81591
B          5.78786       -1.53134       -0.83662
B          0.47166       -2.18595        1.69845
