45
isomer_1012.log	Energy: -113394.0155479
B         -2.58631        1.77822        0.51363
B         -2.46843        3.32112       -0.04155
B         -1.04650        4.13318       -0.08144
B          0.34051        3.30186        0.44700
B         -1.14680        0.81507        0.85301
B          1.82045        0.77181        0.90217
B          1.74770        4.13407       -0.11742
B         -4.05176        0.93963        0.25826
B          1.76619        2.43602        0.49011
B         -3.87481        2.55051       -0.26988
B          0.34543        4.74791       -0.23655
B          3.10145        3.30306       -0.12858
B          3.24211        1.71867        0.32189
B          4.66390        0.88375       -0.08688
B          1.18005       -2.06866        1.90666
B          1.90186       -2.60291        0.59533
B          3.18776       -1.68944        0.12138
B          4.50949       -0.75052       -0.36578
B          4.30452       -2.32472       -1.02543
B          2.95132       -3.14675       -0.58244
B          1.62643       -4.03509       -0.41990
B          0.33130       -3.25020        0.55337
B          0.24119       -4.65128       -0.31755
B         -2.53816       -3.23079       -0.14111
B         -1.12038       -4.07133       -0.14898
B         -2.67343       -1.70413        0.49412
B         -3.95361       -2.40741       -0.33158
B         -4.08058       -0.80992        0.25222
B         -1.22162       -2.44466        0.44112
B         -1.11870        2.48454        0.54775
B          3.33894        0.01034        0.62301
B         -1.23735       -0.76117        0.93877
B          4.42398        2.54518       -0.62067
B         -5.16828        1.77490       -0.77613
B         -5.34039        0.08969       -0.42328
B         -5.22803       -1.59716       -0.80622
B         -6.25121       -0.63924       -1.52892
B         -6.22476        0.86455       -1.51328
B          1.91421       -0.84425        1.23480
B         -2.68286        0.07456        0.80481
B          0.37766        1.60331        0.89195
B          5.46747        1.63846       -1.25036
B          5.65207        0.11577       -1.35922
B          5.43105       -1.42459       -1.47737
B          0.14690       -1.58192        0.85915
