45
isomer_1013.log	Energy: -113361.1913710
B          2.48144        1.72260        0.01342
B          2.55201        3.50607        0.15895
B          1.19537        4.30570        0.21627
B         -0.22622        3.43647       -0.28765
B          1.25853        0.79459       -0.35168
B         -1.64478        0.88495       -0.70523
B         -1.65549        4.29526        0.18946
B          3.88661        1.03846        0.08086
B         -1.65719        2.60017       -0.36074
B          3.89261        2.67722        0.26924
B         -0.25151        4.90352        0.32940
B         -3.03313        3.43903        0.14139
B         -3.08193        1.84246       -0.26278
B         -4.53472        0.98965       -0.03229
B         -0.27642       -1.82695       -0.35133
B         -1.82255       -2.45281       -0.11154
B         -3.21997       -1.56833       -0.24174
B         -4.64903       -0.65128       -0.30969
B         -4.67056       -2.27334        0.33949
B         -3.32856       -3.18156        0.13973
B         -2.10293       -4.14515        0.24883
B         -0.38122       -3.41324       -0.01725
B         -0.88736       -4.96834        0.33038
B          2.95543       -3.32263       -0.12799
B          0.58352       -4.78571        0.28722
B          2.57525       -1.67867       -0.21003
B          4.14620       -2.25080       -0.14495
B          3.91188       -0.69051       -0.04144
B          1.19441       -2.69627       -0.16816
B          1.24158        2.63666       -0.41891
B         -3.20759        0.13373       -0.66262
B          1.24268       -0.86905       -0.34673
B         -4.46065        2.67232        0.38833
B          5.35399        1.90504        0.37711
B          5.23054        0.22694        0.33611
B          5.52001       -1.41051        0.09820
B          6.70646       -0.46341        0.33858
B          6.63553        1.05047        0.44307
B         -1.68040       -0.77309       -0.46643
B          1.96589       -4.27445        0.09582
B         -0.20960        1.81369       -0.73310
B         -5.69498        1.81170        0.67197
B         -5.92296        0.27500        0.65171
B         -5.73610       -1.26948        0.70087
B         -0.19408        0.00387       -0.49411
