45
isomer_1014.log	Energy: -113675.8856628
B          2.56303       -1.73020        0.53001
B          2.51360       -3.30327       -0.03740
B          1.15657       -4.14848       -0.11026
B         -0.26909       -3.40271        0.53713
B          2.60995        0.01620        0.74637
B         -1.71810       -0.84346        0.78822
B         -1.64201       -4.16937       -0.25944
B          3.98444       -0.84520        0.22565
B         -1.72462       -2.55121        0.43112
B          3.86993       -2.48485       -0.27516
B         -0.21976       -4.74764       -0.35460
B         -3.00883       -3.34049       -0.27839
B         -3.12916       -1.73344        0.22085
B         -4.54727       -0.89404       -0.14449
B         -0.36905        1.82548        1.11692
B         -1.80192        2.53259        0.48815
B         -3.17359        1.68047        0.26041
B         -4.53256        0.79783       -0.23647
B         -4.40731        2.44417       -0.74875
B         -3.09204        3.28043       -0.26617
B         -1.74814        4.14409       -0.24654
B         -0.35096        3.38506        0.51434
B         -0.34169        4.74589       -0.35241
B          2.42754        3.33446       -0.04132
B          1.04753        4.15699       -0.12427
B          2.50916        1.75972        0.48763
B          3.80992        2.53692       -0.29355
B          3.95665        0.91062        0.21561
B          1.11926        2.58986        0.76383
B          1.18567       -2.57736        0.78824
B         -3.29390       -0.01621        0.60969
B          1.12947        0.84877        1.04041
B         -4.32707       -2.49973       -0.76980
B          5.10550       -1.65191       -0.84338
B          5.19684        0.04419       -0.52092
B          5.06133        1.73824       -0.86426
B          6.08561        0.81334       -1.61132
B          6.10647       -0.70727       -1.60315
B         -1.78639        0.83039        0.91048
B          1.16972       -0.85017        1.06720
B         -0.31273       -1.83095        1.08738
B         -5.37419       -1.56984       -1.33704
B         -5.62080       -0.03361       -1.30339
B         -5.47399        1.51836       -1.30022
B         -0.34303       -0.00266        1.09306
