45
isomer_1015.log	Energy: -113488.1882603
B         -2.58350       -1.66514       -0.60297
B         -2.54353       -3.27317       -0.04648
B         -1.12546       -4.11374       -0.03006
B          0.34932       -3.42084       -1.13840
B         -1.27458       -0.77517       -1.04244
B          1.66729       -0.74369       -0.82865
B          1.63382       -4.06801        0.00511
B         -3.90136       -0.75572       -0.22128
B          1.48781       -2.32468        0.04749
B         -3.81967       -2.40009        0.16007
B          0.27449       -4.74914       -0.03106
B          2.99577       -3.16534        0.28737
B          3.05234       -1.63152       -0.14154
B          4.35875       -0.64093        0.42463
B          0.23094        1.81134       -1.02881
B          1.65261        2.60877       -0.51308
B          3.05388        1.81777       -0.17385
B          4.50605        0.97306        0.02667
B          4.31268        2.62840        0.65014
B          2.93369        3.41810        0.24617
B          1.53987        4.21663        0.21936
B          0.16502        3.40110       -0.52956
B          0.10907        4.77917        0.27984
B         -2.65300        3.33431       -0.19582
B         -1.26743        4.17818       -0.01451
B         -2.67769        1.69142       -0.68048
B         -3.95854        2.50573        0.12650
B         -4.08454        0.87948       -0.36051
B         -1.29783        2.52777       -0.69172
B         -1.13177       -2.52783       -0.65669
B          3.17222        0.11222       -0.51008
B         -1.27941        0.81254       -1.05409
B          4.30189       -2.33774        0.78348
B         -4.96301       -1.56638        0.98216
B         -4.71805        0.10298        0.94091
B         -5.18130        1.73195        0.74046
B         -6.10263        0.78173        1.52515
B         -5.92152       -0.70723        1.74565
B          1.63743        0.90787       -0.73369
B          0.12077       -3.02313        0.58197
B          0.30501       -1.75880       -1.12815
B          5.44714       -1.40322        1.27086
B          5.61726        0.13564        1.23960
B          5.36123        1.68610        1.18628
B          0.19849        0.00924       -1.11597
