45
isomer_1016.log	Energy: -113675.8862803
B          2.50923        1.75982       -0.48884
B          2.42753        3.33468        0.03983
B          1.04756        4.15723        0.12253
B         -0.35104        3.38491       -0.51479
B          1.13011        0.84881       -1.04242
B         -1.78594        0.83049       -0.91083
B         -1.74805        4.14431        0.24573
B          3.95651        0.91044       -0.21564
B         -1.80199        2.53237       -0.48877
B          3.80968        2.53714        0.29273
B         -0.34163        4.74595        0.35151
B         -3.09184        3.28059        0.26569
B         -3.17354        1.68049       -0.26036
B         -4.53214        0.79788        0.23739
B         -0.31279       -1.83040       -1.08767
B         -1.72477       -2.55119       -0.43092
B         -3.12858       -1.73307       -0.22056
B         -4.54641       -0.89401        0.14636
B         -4.32622       -2.49938        0.77110
B         -3.00843       -3.34017        0.27902
B         -1.64205       -4.16974        0.25788
B         -0.26938       -3.40294       -0.54015
B         -0.22002       -4.74829        0.35176
B          2.51335       -3.30389        0.03690
B          1.15639       -4.14931        0.10812
B          2.56310       -1.73058       -0.53013
B          3.86932       -2.48506        0.27641
B          3.98407       -0.84546       -0.22445
B          1.18575       -2.57773       -0.78887
B          1.11931        2.58993       -0.76542
B         -3.29347       -0.01616       -0.60886
B          1.17032       -0.85079       -1.06851
B         -4.40671        2.44432        0.74940
B          5.06034        1.73856        0.86517
B          5.19564        0.04435        0.52300
B          5.10419       -1.65182        0.84583
B          6.10408       -0.70671        1.60663
B          6.08378        0.81390        1.61361
B         -1.71760       -0.84307       -0.78780
B          2.60988        0.01610       -0.74583
B         -0.36898        1.82508       -1.11715
B         -5.47288        1.51846        1.30184
B         -5.61980       -0.03342        1.30508
B         -5.37325       -1.56962        1.33865
B         -0.34264       -0.00299       -1.09417
