45
isomer_1019.log	Energy: -110232.1102864
B         -2.63515       -1.62167       -0.39063
B         -2.63939       -3.25599        0.00509
B         -1.23907       -4.09493        0.25429
B          0.22366       -3.27962       -0.30544
B         -1.16901       -0.74443       -0.70653
B          1.70528       -0.79778       -0.79478
B          1.60843       -4.06959        0.38932
B         -4.08668       -0.73525       -0.32381
B          1.61391       -2.39599       -0.21876
B         -4.04007       -2.42322        0.14906
B          0.17849       -4.72040        0.53666
B          3.04708       -3.23399        0.39405
B          3.08586       -1.61830       -0.18791
B          4.55260       -0.81251        0.29937
B          0.29143        1.76910       -0.88412
B          1.68024        2.45905       -0.26612
B          3.13040        1.64219       -0.21972
B          4.57472        0.80630        0.28358
B          4.42871        2.36841        0.51377
B          3.13593        3.26938        0.33061
B          1.72064        4.14372        0.30921
B          0.31462        3.37847       -0.37039
B          0.30905        4.83610        0.44345
B         -2.54792        3.43912       -0.06022
B         -1.12515        4.24419        0.17294
B         -2.58843        1.79789       -0.42399
B         -3.97079        2.64789        0.09960
B         -4.06362        0.95292       -0.34028
B         -1.14736        2.60092       -0.59610
B         -1.21660       -2.46698       -0.54667
B          3.18964       -0.09304       -0.59954
B         -1.14688        0.87493       -0.72232
B          4.36404       -2.36526        0.55994
B         -5.35265       -1.59558        0.64655
B         -5.32775        0.03304        0.39673
B         -5.30535        1.86627        0.61279
B         -6.48292        0.93339        1.22545
B         -6.50413       -0.61911        1.24059
B          1.72777        0.84801       -0.81084
B         -1.46127       -1.87638       -0.87725
B          0.24430       -1.68054       -0.85047
B          5.88245       -1.67286        0.76567
B          6.10097        0.03811        0.81377
B          5.92685        1.77060        0.80269
B          1.01309       -0.54656       -0.74931
