45
isomer_1020.log	Energy: -113675.8849738
B         -2.56382        1.73004        0.53135
B         -2.51443        3.30318       -0.03634
B         -1.15792        4.14894       -0.10803
B          0.26817        3.40305        0.53962
B         -1.17038        0.85008        1.06869
B          1.71759        0.84350        0.78641
B          1.64059        4.17050       -0.25801
B         -3.98456        0.84453        0.22519
B          1.72352        2.55157        0.43001
B         -3.87033        2.48419       -0.27519
B          0.21832        4.74854       -0.35180
B          3.00745        3.34147       -0.27923
B          3.12842        1.73450        0.22021
B          4.54632        0.89510       -0.14560
B          0.36997       -1.82487        1.11744
B          1.80283       -2.53213        0.48911
B          3.17444       -1.68015        0.26148
B          4.53193       -0.79672       -0.23801
B          4.40773       -2.44385       -0.74868
B          3.09304       -3.28023       -0.26510
B          1.74953       -4.14415       -0.24508
B          0.35221       -3.38496        0.51554
B          0.34328       -4.74598       -0.35109
B         -2.42641       -3.33534       -0.04104
B         -1.04613       -4.15745       -0.12284
B         -2.50870       -1.76026        0.48742
B         -3.80871       -2.53766       -0.29417
B         -3.95608       -0.91127        0.21533
B         -1.11858       -2.59044        0.76441
B         -1.18645        2.57713        0.78896
B          3.29382        0.01689        0.60961
B         -1.12961       -0.84978        1.04002
B          4.32533        2.50072       -0.77150
B         -5.10509        1.65090       -0.84429
B         -5.19600       -0.04549       -0.52226
B         -5.05977       -1.73928       -0.86591
B         -6.08402       -0.81467       -1.61349
B         -6.10497        0.70591       -1.60533
B          1.78712       -0.82999        0.91190
B         -2.60974       -0.01649        0.74642
B          0.31230        1.83041        1.08658
B          5.37176        1.57050       -1.33930
B          5.61951        0.03443       -1.30513
B          5.47378       -1.51764       -1.30108
B          0.34275        0.00270        1.09279
