45
isomer_1021.log	Energy: -113420.2027831
B          2.67982       -1.58931        0.73018
B          2.70587       -3.19236        0.07407
B          1.35942       -4.09693       -0.03709
B         -0.11725       -3.41900        0.57145
B          1.21750       -0.78299        1.02458
B         -1.47897       -0.81609        0.14831
B         -1.43677       -4.17938       -0.40289
B          3.99601       -0.69901        0.29182
B         -1.52550       -2.58947        0.17460
B          3.96565       -2.28161       -0.10232
B          0.02177       -4.69405       -0.41526
B         -2.81295       -3.37255       -0.50415
B         -2.92718       -1.73483       -0.06071
B         -4.44293       -1.02270       -0.09105
B         -0.33305        1.68789        0.78620
B         -1.85716        2.44223        0.58200
B         -3.20636        1.54234        0.53511
B         -4.54967        0.67345        0.03028
B         -4.57135        2.36867       -0.35196
B         -3.22033        3.17668        0.01736
B         -1.89348        4.06819       -0.13349
B         -0.41473        3.29759        0.26775
B         -0.50455        4.72011       -0.40941
B          2.37634        3.34842       -0.29859
B          0.93041        4.13261       -0.34293
B          2.51240        1.75285        0.29259
B          3.79467        2.58891       -0.38554
B          3.89971        0.99039        0.03375
B          1.10268        2.55095        0.37596
B          1.31672       -2.51317        0.66791
B         -3.15297       -0.12476        0.59860
B          1.19271        0.80195        0.71179
B         -4.19490       -2.54630       -0.89709
B          5.34862       -1.45320       -0.47746
B          5.31364        0.20151       -0.13925
B          5.17446        1.80055       -0.77390
B          6.28209        0.88790       -1.29591
B          6.41545       -0.59237       -1.11199
B         -1.68744        0.69202        1.09960
B         -0.17624        0.15089       -0.09963
B         -0.21845       -1.76259        0.92880
B         -5.33084       -1.63246       -1.27025
B         -5.66293       -0.10751       -1.05054
B         -5.61209        1.43302       -0.91095
B         -0.27783       -0.10649        1.61965
