45
isomer_1023.log	Energy: -111866.7689962
B         -2.57667        1.77825        0.42543
B         -2.55498        3.42170        0.07018
B         -1.14156        4.24401       -0.15971
B          0.30829        3.39182        0.37818
B         -1.12458        0.87012        0.71802
B          1.75025        0.87524        0.80454
B          1.70509        4.17643       -0.29834
B         -4.04227        0.91711        0.33827
B          1.68413        2.48845        0.26824
B         -3.96892        2.61528       -0.09283
B          0.28567        4.85350       -0.42806
B          3.13015        3.31828       -0.32521
B          3.14341        1.68829        0.21665
B          4.59673        0.87141       -0.29192
B          0.29549       -1.67009        0.83197
B          1.67266       -2.36672        0.19566
B          3.13570       -1.57228        0.16791
B          4.59290       -0.74744       -0.31612
B          4.42171       -2.30085       -0.58465
B          3.11477       -3.18526       -0.42243
B          1.68567       -4.03709       -0.42112
B          0.29255       -3.26645        0.27864
B          0.26307       -4.70326       -0.57092
B         -2.57081       -3.27358       -0.02991
B         -1.16127       -4.09533       -0.28438
B         -2.58476       -1.64140        0.37431
B         -3.98091       -2.45597       -0.16864
B         -4.04627       -0.77111        0.31304
B         -1.15663       -2.47141        0.52502
B         -1.14465        2.59662        0.60079
B          3.22299        0.15187        0.59039
B         -1.12841       -0.74929        0.69381
B          4.43291        2.43294       -0.51389
B         -5.29493        1.82129       -0.60922
B         -5.29598        0.18681       -0.39970
B         -5.30311       -1.64065       -0.66097
B         -6.46598       -0.67419       -1.24918
B         -6.46231        0.87836       -1.22597
B          1.74636       -0.77059        0.77993
B         -1.79501       -1.03230        0.03849
B          0.30365        1.77964        0.88354
B          5.93989        1.72161       -0.73825
B          6.13092        0.00907       -0.82880
B          5.92905       -1.72015       -0.86031
B          0.01599       -1.94269        1.98754
