45
isomer_1024.log	Energy: -110699.5932031
B         -2.55627        1.74841        0.36494
B         -2.52541        3.39189        0.01052
B         -1.10694        4.20963       -0.20407
B          0.33431        3.35250        0.34888
B         -1.11036        0.83541        0.67261
B          1.76339        0.83106        0.78964
B          1.74078        4.13273       -0.31249
B         -4.02369        0.89212        0.26193
B          1.70827        2.44465        0.25324
B         -3.94019        2.59018       -0.16778
B          0.32505        4.81450       -0.45704
B          3.16322        3.26990       -0.32453
B          3.16537        1.63971        0.21686
B          4.62132        0.81822       -0.27655
B          0.30007       -1.70949        0.80073
B          1.68162       -2.41044        0.17884
B          3.14747       -1.62081        0.16689
B          4.61243       -0.80061       -0.30135
B          4.43900       -2.35336       -0.57223
B          3.12752       -3.23352       -0.42419
B          1.69569       -4.08064       -0.43835
B          0.29776       -3.30565        0.24685
B          0.27258       -4.74208       -0.60349
B         -2.56217       -3.30327       -0.09209
B         -1.15272       -4.12956       -0.33186
B         -2.57505       -1.67118        0.31254
B         -3.96803       -2.48098       -0.24549
B         -4.03296       -0.79607        0.23606
B         -1.15134       -2.50592        0.47811
B         -1.12351        2.56201        0.55578
B          3.23594        0.10292        0.59088
B         -1.11925       -0.78396        0.64780
B          4.46499        2.38035       -0.49969
B         -5.26323        1.80072       -0.69849
B         -5.27188        0.16618       -0.48957
B         -5.28224       -1.66116       -0.75154
B         -6.43562       -0.69069       -1.35172
B         -6.42709        0.86182       -1.32793
B          1.75436       -0.81475        0.76442
B         -1.80277       -1.69972        2.54296
B          0.31901        1.74018        0.85360
B          5.97193        1.66413       -0.70829
B          6.15828       -0.04899       -0.79741
B          5.95108       -1.77754       -0.83166
B         -0.82073        0.37117        0.91373
