45
isomer_1025.log	Energy: -112598.6941703
B          2.62185       -1.61223        0.38038
B          2.62460       -3.24409       -0.02537
B          1.22343       -4.08099       -0.27655
B         -0.23775       -3.26862        0.29147
B          1.15674       -0.73643        0.70496
B         -1.71736       -0.78931        0.79936
B         -1.62437       -4.05383       -0.40501
B          4.07355       -0.72593        0.31573
B         -1.62787       -2.38399        0.21334
B          4.02526       -2.41095       -0.16738
B         -0.19500       -4.70422       -0.55956
B         -3.06272       -3.21771       -0.40137
B         -3.09960       -1.60560        0.19058
B         -4.56714       -0.79633       -0.28845
B         -0.30238        1.77648        0.90125
B         -1.69232        2.47070        0.29063
B         -3.14288        1.65464        0.24249
B         -4.58864        0.82236       -0.26267
B         -4.44257        2.38580       -0.48360
B         -3.14905        3.28518       -0.29783
B         -1.73341        4.15887       -0.27425
B         -0.32614        3.38898        0.39746
B         -0.32187        4.85157       -0.40742
B          2.53572        3.45052        0.08122
B          1.11272        4.25751       -0.14379
B          2.57645        1.80708        0.43482
B          3.95794        2.65979       -0.08665
B          4.05114        0.96213        0.34261
B          1.13606        2.60955        0.61511
B          1.20334       -2.45798        0.53443
B         -3.20190       -0.08287        0.61179
B          1.13525        0.88281        0.73074
B         -4.37973       -2.34752       -0.55896
B          5.33701       -1.58072       -0.66275
B          5.31328        0.04634       -0.40288
B          5.29106        1.88087       -0.60764
B          6.46690        0.95136       -1.22866
B          6.48752       -0.60103       -1.25338
B         -1.73921        0.85636        0.82556
B          0.91337       -2.14712        1.86235
B         -0.25658       -1.67291        0.84634
B         -5.89835       -1.65333       -0.75702
B         -6.11635        0.05797       -0.79413
B         -5.94158        1.79030       -0.77281
B          0.12159       -0.83345       -0.49448
