45
isomer_1026.log	Energy: -112734.1092089
B          2.61476       -1.59865        0.35891
B          2.61832       -3.23466       -0.05468
B          1.21356       -4.07488       -0.30176
B         -0.24717       -3.27527        0.26922
B          1.16571       -0.71518        0.68903
B         -1.73004       -0.79719        0.79067
B         -1.62782       -4.06298       -0.42079
B          4.04677       -0.71852        0.29130
B         -1.64747       -2.39936        0.19857
B          3.99772       -2.39957       -0.19326
B         -0.19417       -4.69359       -0.57659
B         -3.06769       -3.23239       -0.41152
B         -3.11201       -1.62199        0.18118
B         -4.58046       -0.80977       -0.28905
B         -0.31024        1.76763        0.88995
B         -1.70761        2.46284        0.28422
B         -3.15469        1.64636        0.23974
B         -4.60031        0.81260       -0.25956
B         -4.46167        2.38046       -0.48566
B         -3.15555        3.27335       -0.29861
B         -1.74304        4.14545       -0.27887
B         -0.33695        3.37984        0.38650
B         -0.33338        4.82616       -0.41208
B          2.51778        3.43845        0.06154
B          1.09565        4.24193       -0.15625
B          2.56200        1.79860        0.41677
B          3.93208        2.64435       -0.11006
B          4.02508        0.96371        0.31894
B          1.12746        2.60080        0.59923
B          1.19879       -2.45344        0.50636
B         -3.21303       -0.08900        0.60572
B          1.12932        0.88234        0.71588
B         -4.40451       -2.36780       -0.56801
B          5.30251       -1.56826       -0.68858
B          5.27621        0.05637       -0.42718
B          5.25400        1.87108       -0.63040
B          6.41527        0.95449       -1.25069
B          6.44228       -0.59052       -1.27996
B         -1.75073        0.84777        0.81905
B          1.38383       -1.92620        2.13290
B         -0.27501       -1.67826        0.83262
B         -5.89623       -1.65232       -0.75172
B         -6.10728        0.04487       -0.78269
B         -5.93664        1.74810       -0.76069
B          0.27458       -0.82776       -0.19966
