45
isomer_1027.log	Energy: -112297.9662136
B         -2.57785        1.74456        0.38872
B         -2.56054        3.38279        0.00993
B         -1.14900        4.20768       -0.22229
B          0.30067        3.36946        0.33759
B         -1.12403        0.84688        0.70416
B          1.75010        0.86542        0.80993
B          1.69878        4.15015       -0.34077
B         -4.03925        0.87605        0.30416
B          1.68095        2.47044        0.24997
B         -3.97000        2.56813       -0.15092
B          0.27748        4.81927       -0.48980
B          3.12752        3.29774       -0.34565
B          3.14384        1.67580        0.21976
B          4.60394        0.85783       -0.26718
B          0.30572       -1.68539        0.86432
B          1.69004       -2.38528        0.24742
B          3.14994       -1.58514        0.21805
B          4.60697       -0.76121       -0.26803
B          4.44403       -2.31903       -0.51525
B          3.13969       -3.20653       -0.34907
B          1.71414       -4.06429       -0.34507
B          0.31313       -3.28955        0.33410
B          0.29536       -4.73856       -0.49481
B         -2.54801       -3.31324        0.00642
B         -1.13340       -4.13260       -0.22666
B         -2.57145       -1.67548        0.38693
B         -3.96051       -2.50369       -0.15358
B         -4.03609       -0.81236        0.30327
B         -1.14096       -2.49718        0.55922
B         -1.15045        2.57142        0.56188
B          3.22724        0.14527        0.61617
B         -1.12100       -0.77271        0.70331
B          4.43518        2.41530       -0.51277
B         -5.28917        1.76118       -0.66470
B         -5.28489        0.12990       -0.43162
B         -5.28269       -1.70115       -0.66652
B         -6.44553       -0.74819       -1.27643
B         -6.44843        0.80453       -1.27561
B          1.75318       -0.78060        0.80907
B         -1.93368       -0.21356        1.80657
B          0.29927        1.76473        0.86613
B          5.94658        1.70719       -0.71669
B          6.14529       -0.00565       -0.78122
B          5.95079       -1.73599       -0.78911
B         -0.23289       -1.50432       -0.02334
