45
isomer_1029.log	Energy: -112222.4206718
B         -2.60381       -1.71103       -0.47198
B         -2.59115       -3.35238       -0.09262
B         -1.18283       -4.19285        0.14149
B          0.27235       -3.36852       -0.40163
B         -1.15449       -0.88497       -0.76236
B          1.75430       -0.83452       -0.85681
B          1.65706       -4.13782        0.29097
B         -4.01570       -0.79551       -0.39700
B          1.67484       -2.46565       -0.29649
B         -3.97778       -2.48355        0.05717
B          0.22701       -4.77793        0.41720
B          3.08147       -3.29178        0.31847
B          3.13275       -1.66686       -0.23934
B          4.58197       -0.84100        0.26269
B          0.33420        1.81088       -0.90830
B          1.72382        2.47101       -0.28115
B          3.16461        1.64412       -0.23399
B          4.59067        0.79563        0.26129
B          4.45635        2.36962        0.52495
B          3.14638        3.26329        0.33054
B          1.74360        4.14189        0.31312
B          0.34632        3.40336       -0.37581
B          0.33740        4.81020        0.44291
B         -2.50672        3.44532       -0.07211
B         -1.08627        4.25526        0.17014
B         -2.54462        1.81498       -0.45804
B         -3.91330        2.60481        0.07333
B         -3.99423        0.93900       -0.38813
B         -1.11407        2.64593       -0.61247
B         -1.17578       -2.58181       -0.63159
B          3.23543       -0.10097       -0.63315
B         -1.11016        0.96107       -0.75607
B          4.42413       -2.42160        0.52013
B         -5.26119       -1.65560        0.55854
B         -5.23434       -0.00567        0.32837
B         -5.21344        1.79547        0.56493
B         -6.35926        0.85033        1.15098
B         -6.39707       -0.67299        1.15638
B          1.77108        0.84918       -0.84886
B         -1.59764       -0.74346        1.50336
B          0.30793       -1.77075       -0.93365
B          5.87022       -1.65606        0.72949
B          6.05910        0.01073        0.78544
B          5.89299        1.67468        0.79364
B         -0.75213       -0.14348       -1.04400
