45
isomer_0103.log	Energy: -112113.9701756
B          2.60804       -1.61141        0.40276
B          2.61459       -3.24425        0.00105
B          1.21544       -4.08446       -0.25039
B         -0.24823       -3.27349        0.31320
B          1.14073       -0.73762        0.72274
B         -1.73342       -0.79577        0.81251
B         -1.63219       -4.06306       -0.38363
B          4.05815       -0.72249        0.33832
B         -1.63990       -2.39172        0.23059
B          4.01389       -2.40878       -0.14071
B         -0.20132       -4.71110       -0.53421
B         -3.07213       -3.22970       -0.38444
B         -3.11308       -1.61621        0.20346
B         -4.58137       -0.81094       -0.27999
B         -0.32351        1.77296        0.91041
B         -1.71377        2.46301        0.29577
B         -3.16268        1.64406        0.24724
B         -4.60600        0.80777       -0.25826
B         -4.46256        2.37094       -0.48281
B         -3.17107        3.27325       -0.29712
B         -1.75714        4.14971       -0.27336
B         -0.34952        3.38417        0.40259
B         -0.34671        4.84478       -0.40590
B          2.51274        3.45042        0.09094
B          1.08857        4.25412       -0.13842
B          2.55602        1.80793        0.44867
B          3.93674        2.66200       -0.07262
B          4.03247        0.96558        0.36099
B          1.11380        2.60808        0.62458
B          1.19090       -2.45949        0.55654
B         -3.21899       -0.09264        0.62074
B          1.11610        0.88164        0.74448
B         -4.39055       -2.36243       -0.54636
B          5.32487       -1.57728       -0.63595
B          5.29760        0.05038       -0.38014
B          5.27221        1.88435       -0.58947
B          6.45086        0.95556       -1.20625
B          6.47448       -0.59685       -1.22709
B         -1.75846        0.84992        0.83461
B          0.93320       -2.29148        1.45238
B         -0.27103       -1.67645        0.86409
B         -5.91016       -1.67164       -0.74865
B         -6.13137        0.03915       -0.79035
B         -5.95994        1.77186       -0.77302
B          0.80372       -0.46238       -0.67952
