45
isomer_1032.log	Energy: -111727.3558419
B         -2.51461        1.74630        0.36561
B         -2.48150        3.38541       -0.00833
B         -1.06190        4.19866       -0.23232
B          0.37810        3.34627        0.33110
B         -1.06996        0.83512        0.68444
B          1.80376        0.82837        0.80214
B          1.78574        4.11672       -0.33920
B         -3.98313        0.89078        0.27247
B          1.75088        2.43554        0.24657
B         -3.89730        2.58349       -0.17739
B          0.37094        4.79859       -0.49215
B          3.20704        3.25194       -0.34066
B          3.20692        1.62830        0.22009
B          4.66188        0.79908       -0.26320
B          0.33708       -1.70993        0.84313
B          1.71782       -2.42005        0.22992
B          3.18473       -1.63255        0.20890
B          4.65086       -0.81991       -0.26875
B          4.47544       -2.37555       -0.52117
B          3.16276       -3.25216       -0.36296
B          1.72982       -4.09750       -0.36736
B          0.33277       -3.31257        0.30827
B          0.30587       -4.75898       -0.52492
B         -2.52708       -3.31045       -0.03129
B         -1.11868       -4.14139       -0.26092
B         -2.53789       -1.67364        0.35388
B         -3.93182       -2.48819       -0.19478
B         -3.99462       -0.79759        0.26669
B         -1.11531       -2.50824        0.52969
B         -1.08081        2.56023        0.54707
B          3.27539        0.09597        0.61238
B         -1.08099       -0.78442        0.67888
B          4.50767        2.35865       -0.50494
B         -5.22128        1.78952       -0.69896
B         -5.23213        0.15760       -0.47061
B         -5.24485       -1.67271       -0.71083
B         -6.39682       -0.70794       -1.32276
B         -6.38625        0.84474       -1.31744
B          1.79256       -0.81760        0.79649
B         -2.59268       -1.77136        1.24475
B          0.36057        1.74009        0.85496
B          6.01370        1.63802       -0.70468
B          6.19780       -0.07629       -0.77337
B          5.98833       -1.80484       -0.78711
B         -1.72883        0.90444        1.27869
