45
isomer_1033.log	Energy: -113385.8443066
B         -2.07667       -1.44908       -0.22080
B         -2.60129       -3.16896       -0.48554
B         -1.47590       -4.29543       -0.48188
B          0.08219       -3.36021       -1.03441
B         -0.87035       -0.55478       -1.18108
B          1.08234       -0.66240       -0.79233
B          1.38677       -4.07212        0.03558
B         -3.47528       -0.58728        0.15388
B          1.40351       -2.37176       -0.49063
B         -3.58167       -2.22598        0.33692
B         -0.08785       -4.61334        0.03110
B          2.65384       -3.25339        0.21789
B          2.82652       -1.61240       -0.25674
B          4.10222       -0.85413        0.46415
B          0.37352        1.80515       -1.24574
B          1.74589        2.56223       -0.60824
B          3.09092        1.70329       -0.25393
B          4.36064        0.79215        0.38384
B          4.19027        2.42743        0.90237
B          3.02285        3.31117        0.21365
B          1.72051        4.19917        0.04431
B          0.36559        3.52899       -0.84924
B          0.31777        4.84211        0.05161
B         -2.44954        3.56299       -0.33607
B         -1.06970        4.32292       -0.35304
B         -2.41756        1.87834       -0.71828
B         -3.64367        2.70003        0.06857
B         -3.58257        1.02948       -0.00171
B         -1.05833        2.65379       -1.07541
B         -1.32682       -2.36997       -1.43299
B          3.05688        0.00360       -0.51178
B         -1.12769        1.03284       -1.29514
B          3.94352       -2.47383        0.87948
B         -4.60813       -1.41615        1.19206
B         -4.25542        0.29569        1.33420
B         -4.73613        1.87853        1.00815
B         -5.65007        1.03253        1.86113
B         -5.64262       -0.45693        1.82980
B          1.65363        0.88014       -0.86690
B         -1.03636       -2.94113        0.37439
B          0.24344       -1.82642       -1.71954
B          5.01481       -1.64464        1.52806
B          5.25709       -0.10523        1.61215
B          5.11016        1.43395        1.63231
B         -0.23127       -1.56094        0.05578
