45
isomer_1035.log	Energy: -113478.6452757
B          2.57072       -1.70113        0.61582
B          2.48036       -3.12415       -0.42507
B          1.11681       -3.88137       -0.48671
B         -0.14226       -3.31170        0.57387
B          1.27615       -0.73433        0.74838
B         -1.67208       -0.74960        0.71345
B         -1.65674       -4.12667       -0.12461
B          3.94759       -0.82123        0.26306
B         -1.66208       -2.46927        0.36208
B          3.83939       -2.30777       -0.38548
B         -0.30630       -4.54154       -0.54168
B         -3.03075       -3.30539       -0.05604
B         -3.11914       -1.69718        0.40057
B         -4.58298       -0.83913        0.16619
B         -0.34525        1.86444        1.04543
B         -1.75448        2.55674        0.43298
B         -3.15025        1.75660        0.22039
B         -4.49455        0.79654       -0.21985
B         -4.42064        2.45773       -0.73376
B         -3.06520        3.29575       -0.36310
B         -1.69270        4.14622       -0.41841
B         -0.31263        3.38709        0.35771
B         -0.28532        4.69187       -0.57273
B          2.49570        3.31092       -0.05003
B          1.12364        4.09429       -0.26963
B          2.52950        1.65070        0.57547
B          3.83771        2.49999       -0.10268
B          3.94500        0.92036        0.29566
B          1.17125        2.60320        0.65076
B          1.31603       -2.73333        1.06062
B         -3.25785        0.05891        0.67075
B          1.16111        0.90181        1.02877
B         -4.39548       -2.46157       -0.43669
B          5.22239       -1.52431       -0.65249
B          5.29057        0.07205       -0.10105
B          5.22463        1.72169       -0.50699
B          6.31796        0.86991       -1.14414
B          6.31942       -0.60564       -1.22157
B         -1.77795        0.90068        0.93871
B          1.11780       -2.05352       -0.55288
B         -0.18340       -1.58630        0.38666
B         -5.45412       -1.54133       -0.99657
B         -5.73178       -0.02139       -1.05488
B         -5.56135        1.52413       -1.14115
B         -0.24842        0.05619        1.05086
