45
isomer_1036.log	Energy: -113467.9480603
B          2.50603       -1.51289        0.22606
B          2.47472       -3.24626       -0.12113
B          1.13498       -4.03132       -0.09906
B         -0.34971       -3.27283        0.70114
B          0.99538       -0.71688        0.33637
B         -1.80665       -0.78723        1.14389
B         -1.69912       -3.93790       -0.18403
B          3.97933       -0.93881        0.29447
B         -1.56166       -2.17991       -0.05075
B          3.82183       -2.40016       -0.44882
B         -0.30816       -4.52585       -0.30461
B         -3.05475       -3.13119       -0.27445
B         -3.16202       -1.66472        0.39423
B         -4.49828       -0.70941       -0.14792
B         -0.22926        1.72368        0.92462
B         -1.55358        2.44705        0.10621
B         -2.98681        1.66877       -0.06426
B         -4.53138        0.95644        0.12999
B         -4.31782        2.52105       -0.68327
B         -2.90904        3.29239       -0.40737
B         -1.49860        4.08864       -0.38535
B         -0.20551        3.35138        0.56246
B         -0.06191        4.60374       -0.42224
B          2.67425        3.23118        0.08240
B          1.34464        4.05891       -0.07562
B          2.69924        1.59119        0.75309
B          4.02250        2.33794        0.00421
B          4.05056        0.74170        0.38458
B          1.29215        2.48624        0.49702
B          1.14499       -2.45015        0.42867
B         -3.20919        0.08150        0.65778
B          1.26156        0.83049        0.93946
B         -4.44904       -2.38508       -0.53301
B          5.21339       -1.74514       -0.74069
B          5.34744       -0.10882       -0.24611
B          5.30071        1.56682       -0.52468
B          6.38154        0.62106       -1.21705
B          6.41916       -0.86840       -1.21012
B         -1.53642        0.67795        0.16199
B         -0.24770        0.04076        1.28931
B         -0.33796       -1.69984        1.24486
B         -5.65814       -1.48518       -0.87940
B         -5.78050        0.05730       -0.91515
B         -5.46098        1.59152       -1.00240
B         -0.65021       -0.76974       -0.32534
