45
isomer_1038.log	Energy: -112489.7340385
B         -2.59673       -1.57570       -0.49241
B         -2.62518       -3.21607       -0.12365
B         -1.23768       -4.07799        0.11872
B          0.23887       -3.27363       -0.42019
B         -1.11721       -0.71347       -0.78648
B          1.75651       -0.80453       -0.86121
B          1.60917       -4.09367        0.26841
B         -4.03645       -0.67079       -0.41828
B          1.64049       -2.41057       -0.31202
B         -4.01519       -2.36676        0.02698
B          0.16979       -4.72726        0.39787
B          3.05895       -3.27794        0.29409
B          3.12266       -1.65362       -0.26101
B          4.59761       -0.87599        0.24680
B          0.37805        1.78250       -0.91538
B          1.77282        2.44325       -0.27917
B          3.21153        1.60604       -0.23895
B          4.64174        0.74241        0.25775
B          4.51570        2.30239        0.51287
B          3.23621        3.22377        0.33809
B          1.83303        4.11755        0.32398
B          0.42035        3.38278       -0.37514
B          0.43027        4.82681        0.46253
B         -2.44270        3.47734       -0.07835
B         -1.01038        4.25902        0.17515
B         -2.50352        1.84299       -0.46927
B         -3.87697        2.70307        0.06130
B         -3.99044        1.01695       -0.40686
B         -1.05083        2.62902       -0.62093
B         -1.18896       -2.43759       -0.65522
B          3.24924       -0.12338       -0.64697
B         -1.07307        0.90549       -0.77553
B          4.38667       -2.43008        0.48085
B         -5.31902       -1.52957        0.53145
B         -5.27076        0.10244        0.30858
B         -5.22466        1.93141        0.55487
B         -6.41795        1.00475        1.14620
B         -6.46026       -0.54736        1.13569
B          1.80137        0.84085       -0.85007
B         -2.29984       -2.37627        0.77797
B          0.28402       -1.66627       -0.93872
B          5.91323       -1.76190        0.70554
B          6.15465       -0.05509        0.78287
B          6.00407        1.67956        0.79942
B         -0.66919       -0.15491        0.21787
