45
isomer_1039.log	Energy: -113425.8093662
B         -2.32358        1.63660        0.40459
B         -2.23546        3.27426       -0.24629
B         -0.85658        4.11153       -0.22512
B          0.52985        3.38707        0.64200
B         -0.99457        0.88328        0.98590
B          1.93955        0.77548        1.16668
B          1.92399        4.06801       -0.24677
B         -3.80801        0.98226        0.00413
B          1.92464        2.47496        0.50645
B         -3.57953        2.48427       -0.46075
B          0.54577        4.65412       -0.39582
B          3.23176        3.12718       -0.27634
B          3.28744        1.57797        0.33553
B          4.50972        0.56472       -0.36162
B          0.27407       -1.66711        0.96555
B          1.54973       -2.46992        0.35374
B          3.05233       -1.81396        0.16026
B          4.58721       -1.11344       -0.06736
B          4.13482       -2.68383       -0.82550
B          2.79484       -3.39771       -0.37222
B          1.36526       -4.11960       -0.38059
B          0.04728       -3.19399        0.31184
B         -0.07921       -4.60559       -0.38849
B         -2.79061       -3.19041        0.02884
B         -1.43485       -3.92938       -0.04914
B         -2.76758       -1.57961        0.09762
B         -4.18046       -2.41232       -0.12576
B         -4.05497       -0.74067        0.08096
B         -1.34599       -2.19916        0.84466
B         -0.98669        2.59855        0.56939
B          3.35619       -0.14074        0.64744
B         -1.89126       -0.36232        0.53666
B          4.49713        2.23326       -0.77619
B         -5.03029        1.86512       -0.86580
B         -5.15804        0.20595       -0.52557
B         -5.44862       -1.45101       -0.60956
B         -6.43712       -0.42924       -1.27699
B         -6.25744        1.06347       -1.37851
B          1.74476       -0.84124        0.76371
B         -0.96272       -0.77848        1.79533
B          0.49625        1.83297        1.10900
B          5.54850        1.28650       -1.31534
B          5.60882       -0.27522       -1.33956
B          5.21920       -1.76737       -1.37268
B          0.45448        0.07480        1.57170
