45
isomer_0104.log	Energy: -112453.2594420
B         -2.79648       -1.66220       -0.40034
B         -2.76831       -3.45214        0.02599
B         -1.36231       -4.32955        0.26787
B          0.21598       -3.49211       -0.30987
B         -1.35758       -0.41673       -0.75065
B          1.81893       -0.92873       -0.77583
B          1.64129       -4.19526        0.39762
B         -4.11472       -0.79016       -0.33100
B          1.75712       -2.55031       -0.19975
B         -4.07625       -2.48614        0.12655
B          0.12710       -4.81593        0.51396
B          3.11623       -3.33798        0.43161
B          3.19412       -1.69197       -0.15222
B          4.60275       -0.81343        0.33418
B          0.21722        1.91161       -0.90809
B          1.64593        2.58877       -0.24989
B          3.13630        1.73354       -0.20425
B          4.55566        0.87260        0.31265
B          4.42164        2.46574        0.59845
B          3.05321        3.35002        0.38703
B          1.62600        4.21948        0.36525
B          0.24599        3.48312       -0.34392
B          0.20851        4.82941        0.48441
B         -2.59914        3.47847       -0.02365
B         -1.20579        4.27783        0.21242
B         -2.66135        1.83206       -0.43508
B         -3.99301        2.59905        0.13433
B         -4.08861        0.96910       -0.33771
B         -1.26153        2.68716       -0.59109
B         -1.39547       -2.77153       -0.51616
B          3.29690       -0.04361       -0.60227
B         -1.27701        1.01978       -0.75248
B          4.51720       -2.43350        0.64307
B         -5.32181       -1.62751        0.65251
B         -5.28373        0.03205        0.40613
B         -5.24234        1.79888        0.62819
B         -6.35195        0.86209        1.24315
B         -6.40519       -0.63104        1.26114
B          1.77121        1.05543       -0.84239
B         -1.01315       -1.80547       -0.73196
B          0.40607       -1.73493       -0.93498
B          5.82719       -1.55918        0.81166
B          5.97032        0.07813        0.84837
B          5.76032        1.68897        0.83842
B          1.44255       -0.26387       -1.53135
