45
isomer_1041.log	Energy: -113521.5082720
B          2.02184        2.03223       -0.46923
B          1.90333        3.72796       -0.18917
B          0.48699        4.37984       -0.31204
B         -0.82246        3.42513       -0.86733
B          1.05513        1.21193       -1.48853
B         -1.84217        0.68138       -1.13478
B         -2.27481        3.96588       -0.04213
B          3.08380        1.29937        0.48639
B         -2.09833        2.32349       -0.74132
B          3.12324        2.95414        0.43311
B         -0.99708        4.78771       -0.05726
B         -3.41977        2.87834        0.17477
B         -3.23924        1.29046       -0.21855
B         -4.15016        0.15082        0.65847
B          0.24627       -1.51738       -1.15609
B         -0.94776       -2.66464       -0.68203
B         -2.32809       -2.01198        0.10970
B         -3.94286       -1.50059        0.49514
B         -3.09564       -2.91135        1.26168
B         -1.72102       -3.45123        0.65190
B         -0.22720       -3.98032        0.24850
B          0.28995       -3.28478       -1.56532
B          1.19323       -4.34484       -0.37904
B          2.60962       -2.97398       -0.34225
B          1.87623       -3.66869       -1.61766
B          1.93264       -1.28603       -0.12772
B          3.45507       -1.96086        0.52694
B          3.02263       -0.40498        0.71982
B          1.82560       -2.00592       -1.77882
B          0.78665        2.87257       -1.17057
B         -3.00373       -0.44912       -0.42778
B          1.47058       -0.38232       -1.60803
B         -4.45485        1.82677        0.91958
B          4.38877        2.19787        1.16670
B          4.11122        0.56919        1.50310
B          4.44638       -1.08299        1.44725
B          5.51683       -0.12688        2.03087
B          5.51032        1.34479        1.83121
B         -1.40582       -0.95103       -0.91390
B          0.91032       -2.70079        0.08065
B         -0.61686        1.84523       -1.45250
B         -5.20685        0.75724        1.67964
B         -4.95898       -0.79858        1.82478
B         -4.28803       -2.17828        1.90246
B         -0.22494        0.11523       -1.41059
