45
isomer_1042.log	Energy: -113473.5835497
B         -2.63634       -1.41157       -0.53954
B         -2.82142       -3.09050       -0.40347
B         -1.65936       -3.94156        0.16514
B         -0.05933       -3.15354       -0.34265
B         -1.07121       -0.85618       -0.29046
B          1.75413       -0.93572       -1.07836
B          1.16853       -3.71833        0.79622
B         -4.02931       -0.51138       -0.47856
B          1.53398       -2.48271       -0.32128
B         -4.14512       -2.11799       -0.16730
B         -0.38054       -3.98149        1.00550
B          2.66257       -3.24434        0.61089
B          3.00395       -1.80104       -0.20470
B          4.40409       -0.99847        0.24475
B          0.44427        1.66095       -0.77063
B          1.96719        2.40010       -0.55028
B          3.39219        1.55956       -0.50902
B          4.77623        0.54924       -0.31534
B          4.68574        2.24958        0.29975
B          3.39916        3.13872        0.04866
B          2.03056        3.98357        0.22489
B          0.55971        3.30316       -0.34502
B          0.65164        4.57494        0.58817
B         -2.24446        3.39273        0.31203
B         -0.83707        4.09441        0.43171
B         -2.41953        1.74241       -0.30742
B         -3.67887        2.61141        0.43781
B         -3.90264        1.16095       -0.35078
B         -0.96053        2.49413       -0.12011
B         -1.38714       -2.43566       -1.25278
B          3.35076       -0.20199       -0.82775
B         -1.04231        0.80944       -0.48263
B          4.16274       -2.56080        0.87780
B         -5.36637       -1.30401        0.34746
B         -5.30533        0.39612        0.14311
B         -5.11445        2.01380        0.66000
B         -6.37607        1.16335        1.07120
B         -6.45895       -0.32146        0.98764
B          1.88722        0.76355       -0.88447
B         -1.38019       -2.30986        0.55552
B          0.18860       -1.74883       -1.24240
B          5.43203       -1.81397        1.16468
B          5.81102       -0.29268        0.93727
B          5.70264        1.21050        0.81840
B          0.30756       -0.03850       -0.94365
