45
isomer_1043.log	Energy: -113288.9706291
B         -2.56063        1.71930        0.49355
B         -2.52037        3.39900       -0.05810
B         -1.12870        4.18782       -0.18200
B          0.27611        3.40973        0.39479
B         -1.24062        0.88650        0.88644
B          1.66086        0.84237        0.56221
B          1.72368        4.17056       -0.27544
B         -3.94779        0.94230        0.26896
B          1.70309        2.53896        0.26354
B         -3.84807        2.55572       -0.17434
B          0.30361        4.76382       -0.44130
B          3.11262        3.32714       -0.21275
B          3.11028        1.68328        0.21881
B          4.46336        0.80295       -0.13004
B          0.19104       -1.81004        1.09660
B          1.55326       -2.54478        0.17084
B          2.91168       -1.71559        0.08802
B          4.32768       -0.84711       -0.23214
B          4.32935       -2.53171       -0.65828
B          2.93541       -3.36010       -0.38266
B          1.52418       -4.19360       -0.36424
B          0.15462       -3.34909        0.44989
B          0.07696       -4.71903       -0.41247
B         -2.67165       -3.26671        0.09636
B         -1.29191       -4.09705       -0.08515
B         -2.63563       -1.61353        0.56182
B         -3.99814       -2.38843       -0.05731
B         -4.01517       -0.79568        0.32342
B         -1.31620       -2.54721        0.71993
B         -1.19718        2.60016        0.56603
B          3.15127       -0.01657        0.52041
B         -1.28427       -0.75759        0.90931
B          4.53820        2.53140       -0.37494
B         -5.17948        1.74792       -0.67697
B         -5.19018        0.11479       -0.36107
B         -5.29595       -1.54963       -0.58530
B         -6.29772       -0.64048       -1.31258
B         -6.23868        0.86389       -1.36577
B          1.61884       -0.84535        0.85932
B          0.19217       -0.02144        1.04041
B          0.31137        1.81121        0.88993
B          5.68431        1.55116       -0.75239
B          5.77653       -0.03523       -0.84774
B          5.51647       -1.61203       -0.94495
B          0.71138       -1.19202       -0.49267
