45
isomer_1045.log	Energy: -113274.6224343
B         -2.75442       -1.57965       -0.63772
B         -3.08115       -3.29398        0.18459
B         -1.71287       -4.14816        0.40377
B         -0.16170       -3.41047       -0.42324
B         -1.41738       -0.52637       -0.98001
B          1.66932       -0.86779       -1.07898
B          1.19284       -3.97992        0.41977
B         -4.02583       -0.56807       -0.29257
B          1.43030       -2.50355       -0.35548
B         -4.11135       -2.22393        0.22735
B         -0.25952       -4.58462        0.63703
B          2.64712       -3.28618        0.45589
B          2.95495       -1.81446       -0.18289
B          4.34855       -1.07836        0.37528
B          0.51392        1.80956       -1.02296
B          1.96324        2.44147       -0.37740
B          3.30258        1.50987       -0.27191
B          4.54040        0.59657        0.28735
B          4.69485        2.23263        0.64087
B          3.36185        3.10177        0.31423
B          2.06888        4.07656        0.29161
B          0.58501        3.42798       -0.44055
B          0.69397        4.75972        0.42008
B         -2.24562        3.52505        0.02391
B         -0.75588        4.24690        0.16566
B         -2.41530        1.90262       -0.47250
B         -3.63391        2.75968        0.22185
B         -3.87250        1.20475       -0.28927
B         -0.98214        2.71751       -0.62932
B         -1.71438       -2.84121       -0.55237
B          3.25528       -0.21529       -0.60955
B         -1.09902        0.99010       -0.87411
B          4.15474       -2.68393        0.79223
B         -5.19374       -1.19473        0.82941
B         -5.04651        0.39971        0.51483
B         -4.96420        2.04919        0.76697
B         -6.03347        1.25282        1.53046
B         -6.10551       -0.22756        1.59132
B          1.86213        0.83073       -0.97085
B         -1.27718       -2.04553       -1.67087
B          0.24771       -1.69136       -1.26425
B          5.45614       -1.91989        1.13515
B          5.78544       -0.36118        1.09073
B          5.81838        1.21446        1.02674
B          0.31600       -0.00346       -0.95027
