45
isomer_1047.log	Energy: -112784.0320563
B         -2.58742        1.73407        0.44659
B         -2.55726        3.38253        0.06210
B         -1.15779        4.20025       -0.17142
B          0.28764        3.37882        0.36979
B         -1.16894        0.85898        0.75620
B          1.75855        0.87624        0.83209
B          1.67335        4.15385       -0.32145
B         -4.02490        0.87387        0.35931
B          1.67280        2.48526        0.26924
B         -3.94581        2.55713       -0.08854
B          0.25755        4.79649       -0.45112
B          3.09604        3.31160       -0.34891
B          3.13057        1.69014        0.21576
B          4.58464        0.86622       -0.29080
B          0.33062       -1.75102        0.83747
B          1.70604       -2.44607        0.22707
B          3.14651       -1.61536        0.20671
B          4.58050       -0.76590       -0.29310
B          4.43939       -2.34525       -0.55883
B          3.11757       -3.24814       -0.38346
B          1.69303       -4.09999       -0.37182
B          0.30836       -3.32610        0.32299
B          0.26161       -4.73051       -0.49687
B         -2.57301       -3.31040        0.03880
B         -1.15981       -4.13221       -0.21216
B         -2.62350       -1.65696        0.43312
B         -3.98259       -2.48617       -0.11157
B         -4.03715       -0.81473        0.34995
B         -1.17549       -2.49678        0.58799
B         -1.16935        2.57840        0.60759
B          3.22426        0.14291        0.60912
B         -1.17475       -0.73296        0.76889
B          4.42786        2.44234       -0.54521
B         -5.25787        1.75909       -0.60065
B         -5.26143        0.12334       -0.37537
B         -5.27223       -1.68056       -0.61312
B         -6.40110       -0.73046       -1.20965
B         -6.40798        0.81057       -1.21079
B          1.77395       -0.76937        0.84388
B         -1.88128       -0.49375       -0.46765
B          0.28748        1.77517        0.90233
B          5.88589        1.68485       -0.75539
B          6.06794        0.02109       -0.81734
B          5.88453       -1.67836       -0.82947
B          0.22299       -1.19215        1.47769
