45
isomer_1049.log	Energy: -113421.6637488
B         -2.59197       -1.63541       -0.51459
B         -2.60514       -3.28736       -0.20036
B         -1.24411       -4.07435        0.04836
B          0.20931       -3.27860       -0.37261
B         -1.28834       -0.67804       -0.99077
B          1.77788       -0.88098       -0.96311
B          1.54188       -4.11548        0.33773
B         -3.92035       -0.85456       -0.05991
B          1.70715       -2.53965       -0.46002
B         -3.95395       -2.45674        0.04630
B          0.13930       -4.68684        0.38772
B          2.96691       -3.28653        0.36733
B          3.11061       -1.75416       -0.18672
B          4.48579       -0.85579        0.30650
B          0.27248        1.67469       -0.89189
B          1.78469        2.45733       -0.49133
B          3.21059        1.67036       -0.32622
B          4.63628        0.78026       -0.08060
B          4.44186        2.40856        0.56309
B          3.09536        3.26077        0.12192
B          1.67091        4.10320        0.12884
B          0.29242        3.30217       -0.43612
B          0.27416        4.73765        0.22279
B         -2.46819        3.30288        0.14056
B         -1.15569        4.12296        0.05840
B         -2.32654        1.45302        0.01052
B         -3.74491        2.45938        0.38762
B         -3.82962        0.85928        0.17154
B         -1.23685        2.49420       -0.72718
B         -1.23031       -2.50579       -0.82049
B          3.31485       -0.08332       -0.66838
B         -1.23763        0.89648       -1.43582
B          4.34373       -2.51097        0.78981
B         -5.33141       -1.63852        0.52635
B         -5.20941        0.04156        0.37494
B         -5.14872        1.66564        0.81506
B         -6.36494        0.76526        1.25044
B         -6.45011       -0.73135        1.09938
B          1.79268        0.73919       -0.76684
B         -0.88547        0.76102        0.26033
B          0.27140       -1.75591       -1.08331
B          5.51123       -1.62908        1.25161
B          5.70015       -0.09438        1.21511
B          5.41541        1.43056        1.17887
B          0.25662       -0.05260       -0.58483
