45
isomer_0105.log	Energy:  -90505.4753206
B          1.52305       -1.39369        0.36346
B          1.23766       -3.33986       -0.50921
B         -0.14399       -3.60741       -0.63829
B         -0.90329       -1.50712        0.16956
B          0.44533       -0.23301        0.23658
B         -0.95839        5.48891       -2.21191
B         -2.35282       -2.33794       -0.17578
B          3.04126       -1.02655        0.44352
B         -2.01010        0.00852       -0.44009
B          2.77122       -2.62921        0.25301
B         -1.71942       -3.49523       -0.43943
B         -2.60649       -1.88737       -0.19192
B         -2.50362       -0.34003       -0.88839
B         -2.41695       -1.00911       -0.50913
B         -0.25244        0.96417        0.10718
B         -1.44868        1.41030        0.00448
B         -2.76069        0.05862        0.09988
B         -1.83777        0.73032        0.87375
B         -3.48037        1.54010        0.63443
B         -2.63568        2.19299        0.33121
B         -1.62842        3.40402        0.13679
B          0.00019        2.54776        0.37448
B         -0.23515        4.32884        0.23633
B          2.64283        2.79045       -0.19601
B          1.50239        3.82595        0.19825
B          2.27545        0.81160       -0.10539
B          3.86149        1.69258       -0.19507
B          3.39883        0.14047        0.22256
B          1.07627        1.85125       -0.12121
B          0.12579       -1.84734       -0.21928
B         -2.90445       -2.82004       -1.47313
B          0.95466        0.45299       -0.10264
B         -3.41423       -1.98857       -0.51489
B          4.49971       -2.34948        0.24802
B          4.86381       -0.79253        0.50509
B          5.20713        0.70921       -0.03693
B          6.40299       -0.37431        0.03288
B          6.08302       -1.87899        0.11203
B         -1.21072       -0.88652       -0.22739
B         -0.40862        0.06752        0.25156
B         -0.71700        0.38356        0.00444
B         -4.30287       -1.90992        1.04487
B         -4.22415       -0.65780        1.20309
B         -4.27707        0.75232        1.19406
B         -0.55973        2.15954       -0.08546
