45
isomer_1050.log	Energy: -112192.9761723
B          2.58786        1.72323       -0.46891
B          2.57567        3.36024       -0.08466
B          1.16726        4.18509        0.16594
B         -0.28902        3.34944       -0.38047
B          1.13013        0.82733       -0.77104
B         -1.74499        0.84769       -0.84474
B         -1.67905        4.12865        0.31594
B          4.04964        0.85370       -0.40344
B         -1.66874        2.45085       -0.28039
B          3.98638        2.54433        0.05786
B         -0.25582        4.79654        0.45130
B         -3.10812        3.27696        0.33399
B         -3.13163        1.65687       -0.23645
B         -4.58667        0.83808        0.26407
B         -0.30272       -1.70367       -0.92346
B         -1.68046       -2.40484       -0.29345
B         -3.13951       -1.60406       -0.24523
B         -4.59058       -0.78095        0.25971
B         -4.42576       -2.33965        0.50006
B         -3.12383       -3.22728        0.31649
B         -1.69889       -4.08576        0.29384
B         -0.30510       -3.30954       -0.39838
B         -0.27890       -4.76124        0.42559
B          2.55950       -3.33576       -0.10267
B          1.14712       -4.15514        0.14351
B          2.57960       -1.69679       -0.47811
B          3.97414       -2.52746        0.04421
B          4.04556       -0.83470       -0.40798
B          1.14683       -2.51719       -0.63712
B          1.15907        2.55139       -0.62348
B         -3.22028        0.12768       -0.63686
B          1.12622       -0.79225       -0.77540
B         -4.41432        2.39465        0.51280
B          5.31075        1.73505        0.55430
B          5.30298        0.10453        0.31600
B          5.30239       -1.72727        0.54499
B          6.47247       -0.77689        1.14498
B          6.47622        0.77582        1.14916
B         -1.74897       -0.79832       -0.84916
B          1.40551       -0.44405        1.58155
B         -0.29438        1.74643       -0.91418
B         -5.92375        1.68666        0.73125
B         -6.12267       -0.02628        0.79244
B         -5.92905       -1.75673        0.79257
B          0.15795       -0.35540       -0.93699
