45
isomer_1052.log	Energy: -113458.9326167
B          2.27715        1.77730       -0.52455
B          2.17243        3.45824       -0.04847
B          0.86404        4.29020       -0.17875
B         -0.48692        3.44877       -0.80905
B          1.03645        0.87100       -1.37515
B         -1.57255        0.73314       -0.79897
B         -1.88245        4.15847       -0.03742
B          3.51849        1.00932        0.13381
B         -1.80504        2.45784       -0.61966
B          3.41532        2.66372        0.42863
B         -0.55880        4.86197       -0.01769
B         -3.13610        3.17292        0.14310
B         -3.06360        1.56211       -0.15419
B         -4.33645        0.60436        0.41211
B         -0.23278       -1.81038       -1.35065
B         -1.49411       -2.61278       -0.44190
B         -2.86148       -1.83849       -0.06094
B         -4.26415       -1.04380        0.32994
B         -4.04259       -2.65645        0.91377
B         -2.70128       -3.42838        0.35407
B         -1.30948       -4.21290        0.17473
B         -0.02954       -3.41220       -0.74503
B          0.09812       -4.75127        0.12429
B          2.67421       -3.17552       -0.32770
B          1.42750       -4.05374       -0.22629
B          2.68806       -1.50863       -0.97074
B          3.84850       -2.33965        0.08173
B          3.69451       -0.68886       -0.03056
B          1.25752       -2.35214       -1.02165
B          0.97023        2.65858       -0.96386
B         -3.00372       -0.15695       -0.36141
B          1.42084       -0.72458       -1.77644
B         -4.36761        2.27705        0.75805
B          4.52272        1.85742        1.28740
B          4.79367        0.22039        0.81011
B          4.87828       -1.45651        1.00826
B          5.61013       -0.56079        1.97763
B          5.40396        0.96752        2.13055
B         -1.42049       -0.85357       -0.74961
B          2.00309       -0.01984       -0.14515
B         -0.40461        1.81059       -1.27334
B         -5.39619        1.31122        1.35526
B         -5.44529       -0.24514        1.44457
B         -5.11178       -1.75600        1.50187
B          0.35181       -0.51355       -0.36071
