45
isomer_1053.log	Energy: -113409.1809345
B         -2.67459        1.53311        0.72938
B         -2.65435        3.13835        0.10348
B         -1.35669        4.04410       -0.10776
B          0.14894        3.34032        0.34910
B         -1.15550        0.80090        1.16853
B          1.65077        0.81489        0.53720
B          1.43323        4.11252       -0.50177
B         -4.06372        0.67126        0.45955
B          1.56530        2.50072        0.17082
B         -4.01933        2.25456       -0.00451
B          0.00260        4.67388       -0.49889
B          2.86363        3.30693       -0.50002
B          3.04150        1.78111        0.06993
B          4.53600        0.97551       -0.07431
B          0.32202       -1.68218        0.84673
B          1.79082       -2.46363        0.64896
B          3.21406       -1.66579        0.47692
B          4.48700       -0.69283       -0.14426
B          4.49977       -2.38204       -0.45193
B          3.12727       -3.18635       -0.07987
B          1.78594       -4.09797       -0.15838
B          0.37496       -3.28016        0.33203
B          0.40616       -4.69073       -0.41000
B         -2.41062       -3.27783       -0.27498
B         -1.02329       -4.08012       -0.32677
B         -2.54526       -1.63790        0.25136
B         -3.82498       -2.45900       -0.49154
B         -3.99973       -0.98164        0.28446
B         -1.14193       -2.47417        0.29548
B         -1.32535        2.49328        0.71639
B          3.23281        0.10546        0.63782
B         -1.12397       -0.72168        0.59114
B          4.26017        2.53315       -0.85602
B         -5.30822        1.54092       -0.49480
B         -5.31900       -0.14725       -0.32718
B         -5.16904       -1.76715       -0.85956
B         -6.37028       -0.85539       -1.32876
B         -6.41275        0.62908       -1.19867
B          1.72210       -0.74628        1.10614
B          0.27749        0.02049        1.72418
B          0.25123        1.74281        0.94169
B          5.38324        1.60899       -1.26201
B          5.68842        0.07676       -1.10524
B          5.60281       -1.47361       -0.96794
B          0.23036        0.06459       -0.01613
