45
isomer_1054.log	Energy: -113352.6630724
B         -2.47634        1.72493        0.57979
B         -2.46178        3.38382       -0.02139
B         -1.09295        4.10881       -0.29740
B          0.35613        3.40374        0.30648
B         -1.02012        1.00547        1.02582
B          1.80638        0.94746        0.98840
B          1.71050        4.05665       -0.53021
B         -3.86119        0.98110        0.33442
B          1.81582        2.56302        0.39229
B         -3.77017        2.58929       -0.06474
B          0.29949        4.64936       -0.67791
B          3.12318        3.24850       -0.43513
B          3.19906        1.74042        0.20629
B          4.54669        0.78425       -0.21355
B          0.27823       -1.35129        0.61648
B          1.68315       -2.34121        0.54341
B          3.15708       -1.64646        0.46711
B          4.63257       -0.83422        0.24325
B          4.40493       -2.45378       -0.35768
B          2.98659       -3.23112       -0.02154
B          1.58453       -3.98306       -0.12541
B          0.08988       -3.07391        0.33742
B          0.28335       -4.43851       -0.63644
B         -2.44130       -2.94410       -0.87270
B         -1.13112       -3.84374       -0.84640
B         -2.50655       -1.66742        0.44727
B         -3.81454       -2.17684       -0.60408
B         -3.83801       -0.69747        0.11516
B         -1.68498       -3.32779        0.66687
B         -1.08620        2.60384        0.69236
B          3.29890        0.09803        0.71898
B         -1.21348       -0.56805        0.92984
B          4.50084        2.43572       -0.73128
B         -5.21027        1.80913       -0.35789
B         -5.25950        0.16255        0.03473
B         -5.18194       -1.40559       -0.70156
B         -6.28674       -0.41485       -1.14090
B         -6.37114        1.03159       -0.90433
B          1.74598       -0.64318        0.77577
B         -1.03496       -1.90557       -0.40617
B          0.39913        1.83580        1.06680
B          5.66391        1.50031       -1.09421
B          5.80694       -0.04358       -0.99332
B          5.47111       -1.55111       -0.93821
B         -1.10109       -2.12095        1.48355
