45
isomer_1055.log	Energy: -113327.0149751
B         -1.99848       -0.23680       -0.49549
B         -1.62417       -2.98775        0.77564
B         -0.76982       -4.27808        0.68601
B          0.90579       -3.48543       -1.28863
B         -0.24921       -0.26748       -1.24819
B          1.59165       -0.64783       -0.87164
B          2.12526       -4.00358       -0.28550
B         -3.38358       -1.20361       -0.09567
B          2.00828       -2.35035       -0.87817
B         -3.12210       -2.38763        1.18984
B          0.64813       -4.47206        0.08076
B          3.40373       -3.04354       -0.19760
B          3.23563       -1.42869       -0.48331
B          4.48099       -0.36297       -0.01642
B          0.05980        1.79779       -1.01841
B          1.23112        2.53404       -0.05658
B          2.72108        1.93887        0.10932
B          4.11813        1.12442        0.54020
B          3.92289        2.76523        1.03965
B          2.45634        3.44155        0.67739
B          1.01085        4.23204        0.54203
B         -0.16947        3.39722       -0.36100
B         -0.38661        4.81239        0.32981
B         -2.90773        3.20665       -0.46709
B         -1.70394        4.15970       -0.25871
B         -2.62184        1.50853       -0.77313
B         -4.05340        2.13166       -0.16262
B         -3.76063        0.48943       -0.23304
B         -1.43968        2.65695       -1.17356
B         -0.95872       -1.56007       -0.16767
B          3.02326        0.30641       -0.48063
B         -1.24282        0.96665       -1.50883
B          4.62606       -2.05503        0.31441
B         -4.64070       -2.13631        0.90187
B         -4.86332       -0.54008        0.39914
B         -5.18526        1.16870        0.50178
B         -6.16290        0.13135        1.08685
B         -5.98231       -1.38735        1.17544
B          1.38121        0.90893       -0.69701
B         -2.04739       -1.25833        1.00260
B          0.39197       -1.84245       -1.28838
B          5.55332       -1.05984        0.96140
B          5.58475        0.48155        1.18473
B          5.19541        1.97293        1.39088
B         -0.40156       -3.13776       -0.38241
