45
isomer_1056.log	Energy: -113675.8861975
B         -2.50907       -1.76016       -0.48837
B         -2.42723       -3.33486        0.04022
B         -1.04715       -4.15742        0.12263
B          0.35125       -3.38465       -0.51503
B         -1.12991       -0.84866       -1.04213
B          1.78665       -0.83020       -0.91146
B          1.74842       -4.14422        0.24558
B         -3.95622       -0.91064       -0.21505
B          1.80244       -2.53285       -0.48937
B         -3.80948       -2.53735        0.29343
B          0.34196       -4.74591        0.35141
B          3.09212       -3.28039        0.26603
B          3.17352       -1.68015       -0.26044
B          4.53221       -0.79759        0.23784
B          0.31285        1.83044       -1.08732
B          1.72449        2.55132       -0.43114
B          3.12910        1.73353       -0.22135
B          4.54673        0.89447        0.14562
B          4.32602        2.49992        0.77086
B          3.00839        3.34065        0.27858
B          1.64170        4.16963        0.25828
B          0.26871        3.40277       -0.53876
B          0.21948        4.74773        0.35349
B         -2.51393        3.30359        0.03651
B         -1.15693        4.14898        0.10896
B         -2.56354        1.73066       -0.53135
B         -3.86984        2.48491        0.27530
B         -3.98408        0.84496       -0.22487
B         -1.18589        2.57728       -0.78895
B         -1.11916       -2.59009       -0.76510
B          3.29378        0.01614       -0.60918
B         -1.17023        0.85070       -1.06918
B          4.40676       -2.44416        0.74965
B         -5.06023       -1.73881        0.86559
B         -5.19557       -0.04456        0.52316
B         -5.10462        1.65169        0.84500
B         -6.10468        0.70680        1.60589
B         -6.08380       -0.81397        1.61385
B          1.71778        0.84355       -0.78843
B         -2.60971       -0.01635       -0.74582
B          0.34288        0.00257       -1.09451
B          5.47282       -1.51822        1.30230
B          5.61956        0.03372        1.30525
B          5.37246        1.56983        1.33913
B          0.36918       -1.82462       -1.11676
