45
isomer_1057.log	Energy: -113612.8059141
B          2.57906       -1.71082        0.59847
B          2.62483       -3.33321        0.22880
B          1.32345       -4.19448        0.07509
B         -0.13463       -3.39307        0.38279
B          2.42806        0.04147        0.31859
B         -1.64453       -0.79927        0.45435
B         -1.53076       -4.21115       -0.24316
B          3.85077       -0.81457        0.01111
B         -1.60040       -2.54109        0.28375
B          3.94950       -2.50584       -0.03757
B         -0.07597       -4.80060       -0.29644
B         -2.93382       -3.42939       -0.25566
B         -3.07410       -1.82835        0.14979
B         -4.51587       -0.98833       -0.07421
B         -0.41566        1.81723        1.14931
B         -1.80990        2.51021        0.51498
B         -3.18061        1.65178        0.26935
B         -4.43218        0.67858       -0.40423
B         -4.43790        2.35706       -0.72899
B         -3.16392        3.24179       -0.19709
B         -1.84343        4.17466       -0.10037
B         -0.44153        3.42108        0.66348
B         -0.48101        4.80950       -0.17941
B          2.27792        3.39443       -0.14822
B          0.93116        4.23793       -0.03839
B          2.39766        1.82718        0.34797
B          3.69869        2.61232       -0.45269
B          3.77031        0.96772       -0.09462
B          1.08124        2.66480        0.81026
B          1.19043       -2.53196        0.99368
B         -3.24078       -0.06527        0.52499
B          1.10983        0.89901        1.04591
B         -4.30302       -2.62056       -0.68382
B          5.18970       -1.61867       -0.65107
B          5.12079        0.12215       -0.53007
B          5.01299        1.83040       -0.92606
B          6.12032        0.88154       -1.51248
B          6.19718       -0.64282       -1.38597
B         -1.80633        0.81638        0.97931
B          1.24513       -0.80684        1.15749
B         -0.21324       -1.71177        0.66466
B         -5.37704       -1.69375       -1.20450
B         -5.63866       -0.15483       -1.22950
B         -5.49887        1.40828       -1.27735
B         -0.30488        0.03116        1.02771
