45
isomer_1058.log	Energy: -112455.6520615
B          2.61360       -1.65499        0.34190
B          2.61132       -3.28643       -0.06552
B          1.20750       -4.11928       -0.31543
B         -0.25060       -3.30354        0.25566
B          1.15137       -0.77556        0.66961
B         -1.72272       -0.82076        0.76835
B         -1.64040       -4.08427       -0.43950
B          4.06760       -0.77255        0.27594
B         -1.63844       -2.41507        0.18056
B          4.01401       -2.45693       -0.20883
B         -0.21304       -4.73838       -0.59691
B         -3.07647       -3.24427       -0.43281
B         -3.10809       -1.63268        0.16085
B         -4.57417       -0.81895       -0.31510
B         -0.30064        1.74108        0.87071
B         -1.68963        2.43969        0.26293
B         -3.14247        1.62761        0.21617
B         -4.59123        0.79977       -0.28764
B         -4.44128        2.36303       -0.50719
B         -3.14505        3.25872       -0.32247
B         -1.72700        4.12855       -0.30016
B         -0.32081        3.35416        0.36861
B         -0.31380        4.81756       -0.43478
B          2.54073        3.40828        0.04806
B          1.11957        4.21935       -0.17395
B          2.57755        1.76437        0.39992
B          3.96054        2.61388       -0.12280
B          4.04980        0.91553        0.30458
B          1.13961        2.57055        0.58322
B          1.19305       -2.49705        0.49724
B         -3.20562       -0.11011        0.58378
B          1.13430        0.84371        0.69708
B         -4.39137       -2.37036       -0.58750
B          5.32725       -1.62976       -0.70535
B          5.30832       -0.00290       -0.44378
B          5.29075        1.83189       -0.64662
B          6.46313        0.89984       -1.27039
B          6.47950       -0.65258       -1.29673
B         -1.74007        0.82494        0.79627
B          0.91504       -1.55973        2.48359
B         -0.26426       -1.70836        0.81219
B         -5.90840       -1.67186       -0.78252
B         -6.12183        0.04006       -0.81754
B         -5.94233        1.77189       -0.79471
B          0.30516        0.09189        0.29099
