45
isomer_1059.log	Energy: -113346.4206728
B          2.67414       -1.19570        0.71541
B          2.98082       -2.92190        0.50275
B          1.86481       -3.86722       -0.08711
B          0.26062       -2.87378        0.23822
B          0.92655       -0.98332       -0.09757
B         -1.76029       -0.97964        1.12056
B         -0.92628       -3.64611       -0.87724
B          4.06725       -0.27785        0.64438
B         -1.31988       -2.28923        0.11546
B          4.23111       -1.89361        0.33686
B          0.60423       -4.01130       -0.90189
B         -2.40566       -3.19252       -0.77726
B         -2.89701       -1.85558        0.15832
B         -4.39497       -1.16874       -0.21569
B         -0.62253        1.48389        0.63299
B         -2.11152        2.25884        0.61029
B         -3.54683        1.40985        0.58211
B         -4.86439        0.33607        0.37948
B         -4.85695        2.08936       -0.17916
B         -3.59389        2.99277        0.12276
B         -2.27684        3.91471       -0.11325
B         -0.78646        3.13302        0.12595
B         -0.95155        4.57808       -0.49529
B          1.99201        3.37600       -0.32884
B          0.52001        4.03507       -0.45701
B          2.25128        1.74347        0.19189
B          3.47145        2.76572       -0.43336
B          3.80329        1.32376        0.35365
B          0.75624        2.38610        0.07467
B          1.45501       -2.22829        1.31026
B         -3.39178       -0.33074        0.88185
B          0.91336        0.71842        0.60400
B         -3.94143       -2.60655       -1.01379
B          5.40702       -1.08940       -0.25776
B          5.10479        0.57367       -0.35948
B          4.85481        2.17739       -0.85917
B          6.14891        1.36245       -1.28192
B          6.40231       -0.08938       -1.01637
B         -1.94796        0.62346        0.88815
B          1.20729       -0.54367        1.50698
B         -0.20814       -1.56223        1.26956
B         -5.25981       -1.93877       -1.30733
B         -5.77314       -0.47950       -0.97270
B         -5.79100        1.01853       -0.75089
B          1.73101       -2.27561       -0.58342
