45
isomer_0106.log	Energy: -113474.0776387
B          2.55260       -1.62796        0.55961
B          2.86356       -3.14731       -0.57970
B          1.54700       -4.00728       -0.64532
B          0.17862       -3.22255        0.39419
B          1.01156       -0.60974        1.02566
B         -1.70099       -0.82749        0.91551
B         -1.24572       -3.97533       -0.37818
B          3.84585       -0.57018        0.16749
B         -1.47676       -2.47896        0.39021
B          3.96046       -2.11880       -0.37549
B          0.12587       -4.45491       -0.68548
B         -2.72202       -3.33458       -0.32656
B         -2.96325       -1.80627        0.16910
B         -4.46197       -1.06607       -0.19387
B         -0.56747        1.76968        0.90850
B         -2.05844        2.45780        0.47070
B         -3.42174        1.54669        0.34914
B         -4.76561        0.56426        0.10097
B         -4.73013        2.18140       -0.56288
B         -3.44705        3.12689       -0.19231
B         -2.14907        4.05321       -0.28207
B         -0.67133        3.42202        0.42591
B         -0.78007        4.72549       -0.49526
B          2.12800        3.51047       -0.18548
B          0.65825        4.24712       -0.26159
B          2.29732        1.98105        0.41391
B          3.57395        2.82049       -0.33267
B          3.72015        1.15233        0.00056
B          0.82627        2.67956        0.52116
B          2.00107       -3.29365        0.77466
B         -3.29059       -0.15283        0.66108
B          0.94763        0.99324        0.92084
B         -4.18123       -2.68020       -0.69347
B          5.30723       -1.22310       -0.51194
B          5.22449        0.44295       -0.14102
B          4.93569        2.07137       -0.72916
B          6.11545        1.18198       -1.27312
B          6.37301       -0.28245       -1.06358
B         -1.85680        0.78061        0.79950
B          2.36183        0.19874        0.52550
B         -0.30022       -1.60619        1.19278
B         -5.45086       -1.92831       -1.09378
B         -5.79115       -0.41265       -1.06483
B         -5.68728        1.13032       -1.08893
B          1.16388       -2.21084        1.46973
