45
isomer_1060.log	Energy: -113392.4114881
B         -2.45203        1.84594        0.49522
B         -2.36159        3.47300       -0.11619
B         -0.98052        4.23864       -0.24930
B          0.40947        3.41694        0.39573
B         -1.15989        0.97285        1.03842
B          1.79478        0.87510        1.10837
B          1.82987        4.16255       -0.29156
B         -3.83110        1.07680        0.11234
B          1.84052        2.56626        0.54778
B         -3.69484        2.67722       -0.28693
B          0.43392        4.78454       -0.46130
B          3.14900        3.24877       -0.25665
B          3.17775        1.68676        0.29912
B          4.46814        0.71005       -0.27552
B          0.27445       -1.64046        0.93102
B          1.59134       -2.50416        0.47368
B          3.05912       -1.74264        0.22883
B          4.52561       -0.94341       -0.03869
B          4.22309       -2.56943       -0.71227
B          2.85265       -3.31565       -0.32994
B          1.44040       -4.04406       -0.37621
B          0.10498       -3.32166        0.58227
B         -0.02100       -4.47733       -0.62722
B         -2.62833       -3.15692       -0.06592
B         -1.39994       -3.84347       -0.82893
B         -2.61077       -1.43919        0.62021
B         -3.91081       -2.22170       -0.18598
B         -3.94135       -0.64450        0.20487
B         -1.29642       -2.33308        0.73245
B         -1.06624        2.66473        0.65607
B          3.23681       -0.03861        0.61373
B         -1.22701       -0.65817        1.04670
B          4.47269        2.37659       -0.67629
B         -5.04601        1.88484       -0.78727
B         -5.20447        0.28617       -0.28401
B         -5.22653       -1.38813       -0.66571
B         -6.23692       -0.47528       -1.34923
B         -6.14161        1.01277       -1.42295
B          1.68285       -0.78586        0.76814
B         -1.31617       -4.08128        0.75231
B          0.39117        1.90413        1.10374
B          5.54438        1.42977       -1.19125
B          5.63716       -0.14221       -1.21090
B          5.32602       -1.65410       -1.23622
B          0.28742        0.12692        1.21546
