45
isomer_1061.log	Energy: -113675.8815457
B         -2.56379       -1.72947       -0.53104
B         -2.51531       -3.30346        0.03496
B         -1.15910       -4.14953        0.10718
B          0.26727       -3.40278       -0.53808
B         -1.17047       -0.85028       -1.06822
B          1.71667       -0.84384       -0.78558
B          1.63998       -4.16990        0.25988
B         -3.98446       -0.84426       -0.22559
B          1.72251       -2.55093       -0.42730
B         -3.87019       -2.48421        0.27495
B          0.21737       -4.74814        0.35298
B          3.00716       -3.34150        0.27954
B          3.12853       -1.73501       -0.21987
B          4.54700       -0.89560        0.14360
B          0.36993        1.82528       -1.11814
B          1.80279        2.53190       -0.48858
B          3.17394        1.67982       -0.26016
B          4.53180        0.79589        0.23849
B          4.40879        2.44344        0.74770
B          3.09359        3.28008        0.26480
B          1.74953        4.14394        0.24605
B          0.35252        3.38493       -0.51497
B          0.34348        4.74590        0.35171
B         -2.42639        3.33548        0.04074
B         -1.04597        4.15726        0.12369
B         -2.50826        1.76020       -0.48691
B         -3.80908        2.53812        0.29365
B         -3.95611        0.91186       -0.21549
B         -1.11858        2.59084       -0.76448
B         -1.18698       -2.57691       -0.79012
B          3.29306       -0.01721       -0.60853
B         -1.12910        0.84939       -1.03954
B          4.32601       -2.50067        0.77059
B         -5.10497       -1.65061        0.84430
B         -5.19493        0.04559        0.52326
B         -5.05994        1.73981        0.86533
B         -6.08441        0.81510        1.61267
B         -6.10454       -0.70570        1.60554
B          1.78753        0.82992       -0.91217
B         -2.60983        0.01668       -0.74673
B          0.34258       -0.00260       -1.09337
B          5.37273       -1.57043        1.33770
B          5.62067       -0.03465        1.30367
B          5.47520        1.51737        1.29989
B          0.31175       -1.83117       -1.08798
