45
isomer_1063.log	Energy: -113434.6957638
B         -2.66862        1.58018        0.35934
B         -2.59505        3.26232       -0.08273
B         -1.21553        4.10203       -0.17974
B          0.24216        3.26484        0.20136
B         -1.21058        0.69430        0.59543
B          1.69249        0.75625        1.08357
B          1.62379        4.18705       -0.11650
B         -4.10095        0.87419        0.41019
B          1.68550        2.49250        0.51837
B         -3.99458        2.41759       -0.25489
B          0.20831        4.77145       -0.26822
B          3.00958        3.29990       -0.11481
B          3.12107        1.75487        0.40460
B          4.40394        0.83336       -0.26185
B          0.35474       -1.73464        0.93813
B          1.70052       -2.50563        0.27461
B          3.07145       -1.69232       -0.06068
B          4.53978       -0.82468       -0.01422
B          4.42272       -2.46916       -0.71059
B          3.05052       -3.30191       -0.37351
B          1.64093       -4.14531       -0.34738
B          0.30942       -3.37779        0.49303
B          0.22745       -4.72015       -0.36782
B         -2.51857       -3.23884        0.05847
B         -1.16557       -4.11675       -0.04596
B         -2.60277       -1.63256        0.67704
B         -3.87773       -2.36353       -0.14739
B         -4.01932       -0.80059        0.41876
B         -1.21112       -2.55816        0.68080
B         -1.27473        2.45388        0.32949
B          3.13143       -0.00800        0.47129
B         -1.13005       -0.83946        1.03598
B          4.42550        2.53127       -0.45707
B         -5.28861        1.67150       -0.69114
B         -5.31274       -0.00554       -0.33691
B         -5.15140       -1.65700       -0.67926
B         -6.30278       -0.76824       -1.33273
B         -6.39229        0.71857       -1.29534
B          1.56570       -0.74878        0.09589
B          0.32654       -0.07729        1.58061
B          0.25428        1.63919        0.62875
B          5.58941        1.64426       -0.90476
B          5.74385        0.07655       -0.98077
B          5.51421       -1.48238       -1.07597
B          0.17768        0.04269       -0.15546
