45
isomer_1065.log	Energy: -113506.7649357
B          2.96919        0.83056       -0.50723
B          3.02552        2.67864       -0.09062
B          1.77923        3.61066       -0.02364
B          0.23175        2.91360        0.13726
B          1.32116        0.25666       -0.75030
B         -1.63093        0.85881       -0.64951
B         -1.01457        4.07590        0.34986
B          4.49951        0.58927       -0.93732
B         -1.34524        2.46783       -0.13502
B          4.39344        1.96439       -0.06387
B          0.44947        4.47352        0.19584
B         -2.58892        3.46705        0.40212
B         -2.89986        1.93728       -0.11324
B         -4.45780        1.25769        0.08710
B         -0.58623       -1.76793       -1.28748
B         -2.13731       -2.40518       -0.78476
B         -3.48628       -1.40132       -0.56932
B         -4.76954       -0.32894       -0.37080
B         -4.82404       -1.99107        0.24633
B         -3.56714       -2.97257       -0.08500
B         -2.19579       -3.72584        0.34303
B         -0.63713       -3.24845       -0.40624
B         -0.90468       -4.00051        1.00600
B          1.85366       -2.50224        0.89579
B          0.52503       -3.35009        0.87898
B          2.19594       -1.26585       -0.32844
B          3.36169       -2.03965        0.81006
B          3.82357       -0.77046       -0.19407
B          0.98070       -2.74080       -0.74441
B          1.61425        1.94371       -0.40962
B         -3.29978        0.35093       -0.78181
B          0.91234       -1.17163       -1.45296
B         -4.07064        2.86799        0.70905
B          5.78365        1.24761        0.11903
B          5.51435       -0.45366       -0.13074
B          4.81095       -1.61516        0.97306
B          6.22868       -0.96350        1.22435
B          6.80269        0.26580        0.67058
B         -1.90419       -0.73241       -0.93946
B          0.51773       -1.51317        0.46480
B         -0.02246        1.34312       -0.40490
B         -5.37213        2.11974        1.06520
B         -5.79456        0.63822        0.91957
B         -5.71614       -0.89542        0.82799
B         -0.36915       -0.30313       -0.16523
