45
isomer_1070.log	Energy: -112912.4670963
B          2.59017       -1.68649        0.39940
B          2.57207       -3.32892        0.02202
B          1.16002       -4.15673       -0.20895
B         -0.28993       -3.32882        0.34549
B          1.15598       -0.79170        0.70796
B         -1.74629       -0.81384        0.81322
B         -1.68464       -4.10761       -0.33454
B          4.03198       -0.82027        0.31610
B         -1.68177       -2.43357        0.25378
B          3.96376       -2.50788       -0.13457
B         -0.25963       -4.75999       -0.47577
B         -3.11255       -3.25808       -0.34093
B         -3.13880       -1.63495        0.22127
B         -4.59682       -0.81060       -0.26188
B         -0.30195        1.74501        0.86457
B         -1.68943        2.44245        0.24986
B         -3.14363        1.64093        0.22254
B         -4.59695        0.81471       -0.26019
B         -4.44298        2.37716       -0.51475
B         -3.12648        3.26119       -0.34484
B         -1.70934        4.11588       -0.34280
B         -0.30771        3.34601        0.33468
B         -0.29383        4.77659       -0.49049
B          2.54702        3.36130        0.00106
B          1.13197        4.18037       -0.22717
B          2.58395        1.72510        0.38918
B          3.95637        2.54363       -0.15514
B          4.03002        0.87060        0.31023
B          1.14804        2.55664        0.55731
B          1.16805       -2.52608        0.56898
B         -3.22211       -0.08948        0.61892
B          1.12705        0.83871        0.70188
B         -4.43957       -2.37738       -0.51415
B          5.27579       -1.69960       -0.64796
B          5.26908       -0.06899       -0.41723
B          5.26822        1.74233       -0.65914
B          6.41447        0.79927       -1.26058
B          6.42472       -0.74539       -1.25871
B         -1.74902        0.83750        0.81275
B          1.94070        0.37800        1.63321
B         -0.30016       -1.72876        0.87628
B         -5.92204       -1.64361       -0.70792
B         -6.11232        0.05276       -0.76809
B         -5.92213        1.75448       -0.77637
B          0.03062       -0.84189       -0.11854
