45
isomer_1071.log	Energy: -113323.0451419
B         -2.85522       -1.41697       -0.84746
B         -2.40977       -3.02515       -0.07759
B         -1.57730       -4.23657        0.36912
B          0.63877       -3.67728       -1.01071
B         -1.52560       -0.33094       -1.14419
B          1.62693       -0.83448       -0.81835
B          1.55488       -4.13864        0.29662
B         -4.13461       -0.67740       -0.34939
B          1.69505       -2.52543       -0.54963
B         -3.82658       -2.16921        0.30217
B          0.00541       -4.46307        0.41163
B          2.90496       -3.32042        0.36250
B          3.08758       -1.77691       -0.26831
B          4.38994       -0.85621        0.27183
B          0.40799        1.91799       -1.24552
B          1.74665        2.53413       -0.52995
B          3.10004        1.70591       -0.21156
B          4.39730        0.78111        0.39373
B          4.31237        2.43974        0.82940
B          3.01466        3.26303        0.29739
B          1.70537        4.19543        0.21731
B          0.37874        3.49254       -0.63167
B          0.33248        4.81889        0.26293
B         -2.39500        3.35640       -0.10557
B         -1.07344        4.21371       -0.01863
B         -2.46917        1.65640       -0.59914
B         -3.67427        2.49736        0.27443
B         -3.96658        0.95891       -0.26237
B         -1.12774        2.71036       -0.88943
B         -1.43816       -1.90603       -1.12359
B          3.18541       -0.00293       -0.51938
B         -1.03948        1.05044       -1.17007
B          4.20267       -2.44862        0.88017
B         -5.03072       -1.55603        1.00562
B         -5.10070        0.14639        0.71222
B         -4.79290        1.76489        1.10138
B         -5.78655        0.86961        1.95703
B         -5.92192       -0.60797        1.88665
B          1.67650        0.81961       -0.94079
B         -0.74121       -3.17842       -0.38065
B          0.23002       -1.94924       -1.25160
B          5.21064       -1.53020        1.48965
B          5.49367       -0.00928        1.45928
B          5.38281        1.53308        1.39252
B          0.20610       -0.08858       -1.22801
