45
isomer_1072.log	Energy: -113417.8784749
B         -2.62493       -1.69348       -0.85657
B         -2.39518       -3.29729       -0.01699
B         -0.94142       -3.92379        0.06603
B          0.34621       -3.21347       -0.79747
B         -1.29014       -0.75020       -1.14570
B          1.67250       -0.61831       -1.18694
B          1.93902       -4.08122        1.34376
B         -3.96878       -0.93648       -0.35666
B          1.77708       -3.07945        0.13969
B         -3.71626       -2.48418        0.17311
B          0.48874       -4.11531        0.72159
B          3.13707       -3.20795        1.00834
B          2.96359       -1.81214       -0.29384
B          4.24489       -0.71439        0.13328
B          0.12481        1.86664       -0.88709
B          1.55299        2.67170       -0.57836
B          2.97736        1.91234       -0.36857
B          4.26485        0.94660        0.18081
B          4.23574        2.65888        0.53805
B          2.82958        3.42272        0.28160
B          1.45965        4.23332        0.38749
B          0.07813        3.40069       -0.24402
B          0.04260        4.71368        0.65628
B         -2.71157        3.24266        0.30202
B         -1.36961        4.06614        0.44300
B         -2.73582        1.64070       -0.57604
B         -3.97223        2.32786        0.37876
B         -4.05606        0.79523       -0.24741
B         -1.35890        2.47947       -0.27965
B         -1.16469       -2.37082       -0.63036
B          3.03551        0.13674       -0.54908
B         -1.34833        0.91290       -0.99316
B          4.39386       -2.24976        0.75994
B         -5.10757       -1.79819        0.64442
B         -5.28815       -0.16406        0.25912
B         -5.27763        1.44894        0.78831
B         -6.25424        0.48924        1.44719
B         -6.17740       -0.99877        1.38315
B          1.62280        1.02605       -1.14625
B          0.12783        0.15784       -1.43623
B          0.24024       -1.51552       -1.14443
B          5.48077       -1.27915        1.06314
B          5.62301        0.25268        0.99217
B          5.40673        1.77252        0.95953
B          1.69333       -2.27159       -1.31596
