45
isomer_1074.log	Energy: -113675.8864278
B         -2.60948       -0.01603       -0.74580
B         -2.42780       -3.33471        0.04019
B         -1.04774       -4.15728        0.12275
B          0.35088       -3.38504       -0.51526
B         -1.12973       -0.84860       -1.04145
B          1.78629       -0.83040       -0.91103
B          1.74774       -4.14442        0.24604
B         -3.95621       -0.91026       -0.21535
B          1.80180       -2.53282       -0.48834
B         -3.81014       -2.53703        0.29287
B          0.34135       -4.74601        0.35146
B          3.09149       -3.28059        0.26651
B          3.17316       -1.68044       -0.26018
B          4.53219       -0.79819        0.23758
B          0.31310        1.83071       -1.08747
B          1.72490        2.55136       -0.43101
B          3.12940        1.73335       -0.22163
B          4.54687        0.89378        0.14533
B          4.32680        2.49947        0.77017
B          3.00901        3.34050        0.27830
B          1.64233        4.16965        0.25854
B          0.26920        3.40273       -0.53828
B          0.22018        4.74802        0.35327
B         -2.51348        3.30391        0.03693
B         -1.15637        4.14910        0.10948
B         -2.56301        1.73073       -0.53029
B         -3.86954        2.48523        0.27567
B         -3.98381        0.84545       -0.22446
B         -1.18554        2.57762       -0.78872
B         -1.11953       -2.58985       -0.76437
B          3.29368        0.01588       -0.60941
B         -1.16995        0.85078       -1.06799
B          4.40634       -2.44462        0.74986
B         -5.06110       -1.73845        0.86460
B         -5.19550       -0.04407        0.52283
B         -5.10453        1.65206        0.84494
B         -6.10494        0.70720        1.60530
B         -6.08480       -0.81351        1.61258
B          1.71799        0.84343       -0.78846
B         -2.50951       -1.75993       -0.48891
B          0.36908       -1.82518       -1.11687
B          5.47282       -1.51880        1.30191
B          5.61977        0.03311        1.30485
B          5.37329        1.56931        1.33819
B          0.34302        0.00285       -1.09488
