45
isomer_1075.log	Energy: -113665.4654747
B          2.58543       -1.73778        0.55112
B          2.53186       -3.35328        0.01434
B          1.13601       -4.11704       -0.06827
B         -0.31560       -3.40043        0.67461
B         -0.36418        0.00040        1.13067
B         -1.79245       -0.88507        0.82509
B         -1.72809       -4.11254       -0.19194
B          3.99738       -0.88391        0.20157
B         -1.80380       -2.56599        0.46371
B          3.87271       -2.51773       -0.26970
B         -0.28301       -4.61994       -0.35993
B         -3.10657       -3.32214       -0.23235
B         -3.19526       -1.69940        0.35522
B         -4.53778       -0.86644       -0.26309
B         -0.34330        1.74364        1.09447
B         -1.80489        2.56544        0.46498
B         -3.19621        1.69843        0.35643
B         -4.53838        0.86485       -0.26287
B         -4.40488        2.49035       -0.74414
B         -3.10803        3.32124       -0.23166
B         -1.73039        4.11241       -0.19106
B         -0.31741        3.40104        0.67519
B         -0.28562        4.61975       -0.36032
B          2.52985        3.35370        0.01447
B          1.13387        4.11717       -0.06895
B          2.58370        1.73821        0.54979
B          3.87093        2.51816       -0.27156
B          3.99665        0.88560        0.20102
B          1.14073        2.53256        0.55883
B          1.14240       -2.53251        0.56024
B         -3.28530       -0.00077        0.56835
B          1.15095        0.85861        0.86622
B         -4.40426       -2.49193       -0.74489
B          5.12273       -1.69673       -0.83543
B          5.24699        0.00078       -0.49627
B          5.12144        1.69840       -0.83703
B          6.12745        0.75894       -1.60032
B          6.12807       -0.75721       -1.59961
B         -1.79336        0.88560        0.82674
B          1.15223       -0.86006        0.86710
B         -0.34315       -1.74270        1.09372
B         -5.45335       -1.56573       -1.35303
B         -5.61762       -0.00083       -1.34583
B         -5.45310        1.56397       -1.35362
B          2.63462        0.00094        0.76798
