45
isomer_1077.log	Energy: -113675.9110443
B         -3.16829        0.57510        0.91780
B         -3.41511        2.07097       -0.03418
B         -2.39653        3.23233       -0.14488
B         -0.76923        2.81568        0.14310
B         -1.55270       -0.05479        0.88401
B          1.31189        0.93889        0.79595
B          0.33259        4.00534       -0.34555
B         -4.56668       -0.09523        1.31092
B          0.87005        2.53659        0.39037
B         -4.48194        0.87971       -0.36354
B         -1.18494        4.21647       -0.44879
B          1.97675        3.61622       -0.27698
B          2.44158        2.11572        0.21152
B          4.07881        1.67725        0.02519
B          0.61343       -1.89828        1.03055
B          2.22022       -2.31022        0.54844
B          3.41362       -1.12639        0.49160
B          4.56343        0.10884        0.39211
B          4.89386       -1.49485       -0.22427
B          3.82915       -2.72289        0.06287
B          2.70954       -3.81065       -0.09828
B          0.98646       -3.60469        0.42325
B          1.67617       -3.37494       -1.09598
B         -1.39902       -2.80211       -1.20379
B          0.16002       -3.02075       -1.16201
B         -2.02935       -2.27233        0.39395
B         -2.34303       -1.58153       -1.16534
B         -3.20557       -1.05023        0.33856
B         -0.54294       -1.44330       -0.54080
B         -1.97014        1.74296        0.72392
B          3.03233        0.60296        0.82652
B         -0.87525       -1.45806        1.38420
B          3.50375        3.24649       -0.56404
B         -5.93230        0.21237        0.67835
B         -4.87320       -0.90208       -0.17112
B         -3.69869       -0.68202       -1.39830
B         -5.06290       -0.13921       -1.76411
B         -6.13561        0.28635       -0.78000
B          1.76286       -0.67164        0.69590
B         -0.58869       -3.12609        0.50611
B         -0.34720        1.32642        0.83878
B          4.89504        2.68384       -0.91379
B          5.49055        1.26966       -0.81458
B          5.63384       -0.28491       -0.76712
B          0.14336       -0.23294        0.26345
