45
isomer_1080.log	Energy: -112786.8430345
B         -2.43182        1.85314        0.46690
B         -2.24120        3.50024        0.07946
B         -0.79110        4.22180       -0.13420
B          0.58661        3.39669        0.39423
B         -1.09568        0.86970        0.76949
B          1.90542        0.90998        0.83416
B          2.02338        4.11203       -0.28806
B         -3.94637        1.14392        0.36003
B          1.93768        2.48537        0.29215
B         -3.68299        2.76686       -0.07893
B          0.62762        4.76168       -0.40542
B          3.38327        3.18696       -0.31471
B          3.34285        1.58651        0.21213
B          4.70388        0.66055       -0.25850
B         -0.23075       -1.80368        0.80202
B          1.42887       -2.40785        0.07100
B          2.97913       -1.69724        0.14326
B          4.49904       -0.95072       -0.27631
B          4.22733       -2.56429       -0.65128
B          2.68977       -3.23700       -0.48734
B          1.21738       -4.04125       -0.51718
B         -0.13910       -3.28360        0.15952
B         -0.24101       -4.62836       -0.62582
B         -2.98421       -3.16592       -0.07122
B         -1.69594       -4.03627       -0.34398
B         -2.92040       -1.47628        0.37504
B         -4.32305       -2.14839       -0.19539
B         -4.17137       -0.55523        0.31837
B         -1.62281       -2.47160        0.47739
B         -0.98558        2.61860        0.61862
B          3.28955        0.02651        0.59630
B         -1.49888       -0.58075        0.68295
B          4.75263        2.30935       -0.53879
B         -5.04072        2.14842       -0.59637
B         -5.26319        0.49412       -0.39366
B         -5.49087       -1.22972       -0.66536
B         -6.46751       -0.14123       -1.25210
B         -6.29504        1.34602       -1.23917
B          1.80075       -0.63812        0.79881
B         -0.24670       -3.67369        1.59258
B          0.48215        1.76438        0.91663
B          5.99425        1.33712       -0.73471
B          5.99557       -0.28156       -0.80612
B          5.60459       -1.87456       -0.83375
B          0.33458       -0.61263        0.74733
