45
isomer_1082.log	Energy: -112629.8551271
B          2.62741       -1.68138        0.40134
B          2.61917       -3.31734        0.01253
B          1.21241       -4.14718       -0.23072
B         -0.24343       -3.31898        0.32806
B          1.16820       -0.79225        0.71602
B         -1.70625       -0.82446        0.80942
B         -1.63508       -4.10184       -0.36099
B          4.08519       -0.80576        0.32828
B         -1.62741       -2.42570        0.24002
B          4.02557       -2.49533       -0.13736
B         -0.21013       -4.76359       -0.50802
B         -3.06766       -3.25590       -0.36679
B         -3.09376       -1.63753        0.20839
B         -4.55550       -0.82324       -0.27979
B         -0.27375        1.73250        0.88547
B         -1.65862        2.42985        0.26694
B         -3.11472        1.62330        0.22648
B         -4.56591        0.79575       -0.27081
B         -4.40903        2.35577       -0.50786
B         -3.10946        3.24815       -0.33072
B         -1.68787        4.11232       -0.31544
B         -0.28623        3.33981        0.36498
B         -0.27155        4.79392       -0.45503
B          2.57614        3.37847        0.04966
B          1.15880        4.19281       -0.18448
B          2.60543        1.73854        0.42030
B          3.99298        2.57632       -0.10924
B          4.07433        0.88259        0.33764
B          1.17050        2.55268        0.59148
B          1.20307       -2.51575        0.56337
B         -3.18582       -0.10984        0.61374
B          1.15779        0.82729        0.72500
B         -4.37860       -2.37839       -0.53411
B          5.34322       -1.67930       -0.64060
B          5.33052       -0.04950       -0.39763
B          5.32097        1.78292       -0.62140
B          6.49071        0.83898       -1.23213
B          6.50069       -0.71369       -1.24073
B         -1.71682        0.82151        0.81855
B          0.61470       -0.56565        1.93625
B         -0.25158       -1.71750        0.86634
B         -5.89234       -1.67591       -0.74017
B         -6.09858        0.03637       -0.79514
B         -5.91194        1.76759       -0.79168
B         -0.32573       -0.03145       -0.65943
