45
isomer_1083.log	Energy: -113407.9105899
B         -2.46647       -1.47345       -0.42981
B         -2.42461       -3.17954        0.23237
B         -1.20103       -4.00295        0.82190
B          0.20661       -3.28706       -0.66645
B         -1.23088       -0.70887       -1.11905
B          1.74988       -0.76377       -1.05198
B          1.56912       -4.05933        0.18137
B         -3.81753       -0.71746       -0.03853
B          1.66391       -2.48169       -0.61649
B         -3.72976       -2.28034        0.37869
B          0.12014       -4.62543        0.32587
B          2.90310       -3.22567        0.27647
B          3.09391       -1.67262       -0.29808
B          4.38234       -0.78218        0.36357
B          0.31769        1.85088       -1.02652
B          1.76178        2.61307       -0.54662
B          3.11966        1.76559       -0.22034
B          4.54114        0.87100        0.13325
B          4.31215        2.51402        0.75982
B          3.04929        3.37433        0.27097
B          1.68134        4.19967        0.27015
B          0.29973        3.42408       -0.46117
B          0.26714        4.77739        0.38515
B         -2.50148        3.45838       -0.05355
B         -1.14986        4.22208        0.07587
B         -2.56331        1.75840       -0.74026
B         -3.77183        2.61422        0.15526
B         -3.88748        1.01810       -0.19492
B         -1.17508        2.58057       -0.61932
B         -1.23866       -2.41589       -0.93561
B          3.24814        0.02972       -0.59350
B         -1.21602        0.95503       -1.21410
B          4.24665       -2.43989        0.77552
B         -5.03412       -1.46924        0.93378
B         -5.13581        0.15075        0.42004
B         -5.08586        1.80823        0.72913
B         -6.08262        0.93699        1.51328
B         -6.06718       -0.55881        1.58955
B          1.74401        0.91299       -0.82340
B         -1.24626       -4.08103       -0.75675
B          0.31889       -1.65649       -1.12046
B          5.34864       -1.56611        1.35404
B          5.51399       -0.01286        1.38579
B          5.28904        1.52613        1.38037
B          0.27757        0.09905       -1.18530
