45
isomer_1086.log	Energy: -113675.8846230
B         -2.56444        1.72955        0.53197
B         -2.51602        3.30337       -0.03634
B         -1.15972        4.14902       -0.10793
B          0.26714        3.40329        0.53987
B         -1.17091        0.85114        1.06821
B          1.71616        0.84353        0.78239
B          1.63947        4.17084       -0.25817
B         -3.98481        0.84381        0.22517
B          1.72229        2.55187        0.42872
B         -3.87111        2.48376       -0.27509
B          0.21668        4.74800       -0.35263
B          3.00670        3.34272       -0.27866
B          3.12756        1.73494        0.21921
B          4.54699        0.89660       -0.14247
B          0.37081       -1.82446        1.11755
B          1.80376       -2.53211        0.48957
B          3.17452       -1.67938        0.26128
B          4.53128       -0.79515       -0.24067
B          4.40874       -2.44324       -0.74839
B          3.09425       -3.27943       -0.26532
B          1.75095       -4.14389       -0.24491
B          0.35318       -3.38403        0.51417
B          0.34483       -4.74585       -0.35103
B         -2.42545       -3.33613       -0.03985
B         -1.04497       -4.15764       -0.12250
B         -2.50777       -1.76035        0.48693
B         -3.80820       -2.53866       -0.29334
B         -3.95556       -0.91228        0.21544
B         -1.11779       -2.59030        0.76372
B         -1.18759        2.57745        0.78894
B          3.29338        0.01689        0.60939
B         -1.12853       -0.84901        1.03942
B          4.32429        2.50145       -0.77060
B         -5.10553        1.64946       -0.84426
B         -5.19564       -0.04680       -0.52245
B         -5.05944       -1.74081       -0.86526
B         -6.08430       -0.81652       -1.61266
B         -6.10551        0.70397       -1.60496
B          1.78909       -0.83019        0.91491
B         -2.60960       -0.01698        0.74628
B          0.31171        1.83036        1.08605
B          5.37024        1.57056       -1.33860
B          5.62017        0.03498       -1.30436
B          5.47578       -1.51729       -1.29997
B          0.34293        0.00294        1.09122
