45
isomer_1088.log	Energy: -113477.3769655
B         -1.84878       -1.57182        0.16695
B         -2.34220       -3.35310       -0.17136
B         -1.15725       -4.22667       -0.64293
B          0.27259       -3.35982       -1.23702
B         -1.25660       -0.75116       -1.30507
B          1.40297       -0.68690       -0.34093
B          1.52252       -4.17368       -0.27979
B         -3.17526       -0.85754        0.80729
B          1.38146       -2.40407       -0.38988
B         -3.33381       -2.45444        0.57157
B          0.22261       -4.85702       -0.61500
B          2.76849       -3.27094        0.17752
B          2.85750       -1.67219       -0.05492
B          4.23365       -0.79096        0.43536
B          0.28299        1.82266       -1.41778
B          1.56497        2.59646       -0.56378
B          2.91764        1.82293       -0.10132
B          4.07204        0.86524        0.72576
B          4.00527        2.54724        1.03701
B          2.76890        3.38948        0.31271
B          1.43385        4.25639       -0.02193
B          0.17437        3.46326       -0.92761
B          0.04616        4.87548       -0.20197
B         -2.60448        3.35665       -0.41696
B         -1.32131        4.21754       -0.53357
B         -2.36440        1.64095       -0.42633
B         -3.70959        2.44665        0.23024
B         -3.40107        0.85806        0.51040
B         -1.30330        2.58892       -1.26654
B         -1.26609       -2.49762       -1.13014
B          2.97466        0.07197       -0.31450
B         -1.25778        0.91458       -1.36603
B          4.00209       -2.46400        0.90807
B         -4.58696       -1.68300        1.28888
B         -4.45435       -0.01100        1.40259
B         -4.89317        1.56451        0.94243
B         -5.98264        0.60136        1.47202
B         -5.84916       -0.86436        1.65215
B          1.66854        0.94039       -1.01541
B         -0.14856       -1.31329        0.03743
B          0.25961       -1.72561       -1.65522
B          4.98513       -1.52249        1.61020
B          5.18598        0.03417        1.70885
B          5.01985        1.61275        1.71721
B          0.23293        0.02405       -1.31864
