45
isomer_1090.log	Energy: -112706.4512904
B          2.60529       -1.67354        0.43276
B          2.60105       -3.31278        0.05795
B          1.19648       -4.14706       -0.18280
B         -0.26257       -3.31656        0.36409
B          1.14357       -0.78422        0.73503
B         -1.73110       -0.82049        0.81927
B         -1.65063       -4.10765       -0.32279
B          4.06184       -0.79612        0.35698
B         -1.64773       -2.42641        0.26386
B          4.00657       -2.48971       -0.09437
B         -0.22411       -4.76822       -0.45948
B         -3.08459       -3.26421       -0.34053
B         -3.11528       -1.64102        0.22068
B         -4.57676       -0.83341       -0.27925
B         -0.30312        1.73944        0.87812
B         -1.68711        2.42913        0.24910
B         -3.14172        1.61980        0.21077
B         -4.58988        0.78557       -0.28417
B         -4.43482        2.34377       -0.53405
B         -3.13733        3.23983       -0.36031
B         -1.71723        4.10650       -0.34776
B         -0.31656        3.34222        0.34384
B         -0.30160        4.78927       -0.48854
B          2.54676        3.38301        0.03759
B          1.12885        4.19292       -0.20816
B          2.57756        1.74637        0.42236
B          3.96545        2.58193       -0.10979
B          4.04815        0.89223        0.35185
B          1.14072        2.55952        0.58185
B          1.18182       -2.50890        0.59726
B         -3.21121       -0.11008        0.61262
B          1.13044        0.83531        0.73010
B         -4.39643       -2.39039       -0.51966
B          5.32451       -1.67578       -0.60025
B          5.30830       -0.04399       -0.37129
B          5.29644        1.78642       -0.61078
B          6.46975        0.83927       -1.20955
B          6.48234       -0.71339       -1.20483
B         -1.74445        0.82547        0.81427
B          1.00258       -0.82320       -0.79199
B         -0.27515       -1.71056        0.88861
B         -5.91065       -1.69225       -0.73669
B         -6.11956        0.01914       -0.80700
B         -5.93581        1.75064       -0.81776
B          0.29694        0.24214        1.71288
