45
isomer_1091.log	Energy: -110987.0202519
B         -2.51180        1.79367        0.35983
B         -2.46792        3.43542       -0.00121
B         -1.04285        4.24247       -0.21244
B          0.38983        3.37774        0.35085
B         -1.07368        0.87203        0.67810
B          1.79939        0.84838        0.80874
B          1.80475        4.14553       -0.30707
B         -3.98459        0.94708        0.25340
B          1.75793        2.46007        0.26544
B         -3.88735        2.64273       -0.18289
B          0.39446        4.83642       -0.46112
B          3.22125        3.27289       -0.30883
B          3.20960        1.64498        0.23928
B          4.66214        0.81144       -0.24385
B          0.31853       -1.68197        0.82336
B          1.69811       -2.39498        0.21090
B          3.16942       -1.61552        0.20265
B          4.64220       -0.80737       -0.26204
B          4.45933       -2.36001       -0.52734
B          3.14112       -3.23049       -0.38189
B          1.70356       -4.06780       -0.39934
B          0.30780       -3.28036        0.27605
B          0.27671       -4.72010       -0.56847
B         -2.55041       -3.25970       -0.07642
B         -1.14559       -4.09666       -0.30612
B         -2.55393       -1.62589        0.32141
B         -3.94983       -2.42840       -0.23986
B         -4.00539       -0.74110        0.23444
B         -1.13681       -2.46973        0.49716
B         -1.07437        2.59818        0.55409
B          3.26779        0.10930        0.61995
B         -1.09363       -0.74734        0.65990
B          4.51765        2.37367       -0.47416
B         -5.21330        1.86020       -0.71661
B         -5.23421        0.22664       -0.50100
B         -5.25595       -1.60165       -0.75550
B         -6.39977       -0.62577       -1.36511
B         -6.38064        0.92673       -1.34767
B          1.77911       -0.79741        0.79025
B         -3.01705       -0.89943        2.39759
B          0.36103        1.76768        0.86212
B          6.02057        1.64624       -0.67268
B          6.19551       -0.06848       -0.75386
B          5.97655       -1.79568       -0.78198
B         -1.09529       -1.52364        0.44193
