45
isomer_1093.log	Energy: -113523.2983701
B         -2.06568       -1.98805       -0.41299
B         -1.56971       -2.89422        0.97588
B         -0.10744       -3.40076        1.10133
B          0.77684       -3.35501       -0.47345
B         -0.89896       -1.24805       -1.34099
B          1.82259       -0.67256       -0.96036
B          2.56791       -3.71759        0.16346
B         -3.32136       -0.83740       -0.12025
B          2.19171       -2.36330       -0.77726
B         -2.97219       -2.19684        0.96786
B          1.35898       -3.82829        1.01815
B          3.73278       -2.77833       -0.23667
B          3.42142       -1.19679       -0.62912
B          4.54723       -0.03566       -0.11358
B         -0.20630        1.36272       -0.38393
B          1.00335        2.44243        0.18135
B          2.61322        2.06026        0.05951
B          4.22317        1.60960       -0.18498
B          3.72132        3.14187        0.71280
B          2.19509        3.61094        0.52824
B          0.66030        4.13295        0.51479
B         -0.54444        2.95639        0.06281
B         -0.84391        4.46943        0.33471
B         -3.30346        2.63270       -0.42119
B         -2.12796        3.56436       -0.05782
B         -3.05158        0.83755       -0.59955
B         -4.55674        1.75515       -0.67092
B         -4.44178        0.18149       -1.10804
B         -1.79824        1.93286       -0.61066
B         -0.77866       -2.99773       -0.80177
B          3.09102        0.53455       -0.75542
B         -1.49459        0.19808       -0.80558
B          4.90650       -1.67060        0.14171
B         -4.32214       -1.51542        1.37648
B         -5.02098       -0.59093        0.18555
B         -5.83234        0.82304       -0.33834
B         -6.41790        0.12084        0.84285
B         -5.64348       -0.84470        1.69116
B          1.41171        0.88972       -0.38775
B         -0.24684       -1.79818        0.45649
B          0.66264       -1.76880       -1.34663
B          5.83389       -0.57144        0.63934
B          5.61852        0.97509        0.77911
B          5.01525        2.37911        0.97669
B          0.19122       -0.34046       -0.17303
