45
isomer_1095.log	Energy: -113554.9054121
B         -2.52221       -1.71329       -0.82103
B         -2.50751       -3.31718       -0.14185
B         -1.22219       -4.21118       -0.06047
B          0.20922       -3.42645       -0.40502
B          0.12444       -0.11412       -1.24308
B          1.53244       -0.78567       -0.64103
B          1.56326       -4.24599        0.30990
B         -3.72876       -0.82488       -0.02576
B          1.63536       -2.55425       -0.25223
B         -3.84321       -2.48353        0.08034
B          0.17418       -4.88449        0.24332
B          2.90982       -3.35285        0.43467
B          2.98589       -1.74432        0.02059
B          4.39371       -0.89921        0.30733
B          0.38009        1.99694       -1.20388
B          1.79147        2.57821       -0.59188
B          3.09800        1.67820       -0.24680
B          4.46669        0.73538        0.11471
B          4.41007        2.38618        0.62786
B          3.11629        3.25933        0.15665
B          1.77684        4.15593        0.22140
B          0.40225        3.60794       -0.68882
B          0.38170        4.74885        0.42744
B         -2.43880        3.44475        0.08813
B         -1.07796        4.26458        0.14235
B         -2.42660        1.75948       -0.49487
B         -3.74362        2.56925        0.41022
B         -3.68770        0.89993        0.06352
B         -1.08758        2.76540       -0.63280
B         -1.18647       -2.68530       -0.97744
B          3.05098       -0.05068       -0.37095
B         -0.97516        1.06373       -0.96635
B          4.29428       -2.54510        0.82644
B         -5.05026       -1.67699        0.77596
B         -4.94003        0.07054        0.76677
B         -4.96266        1.77403        0.96318
B         -6.06534        0.78155        1.60682
B         -6.08167       -0.73511        1.53266
B          1.53175        0.83693       -0.82249
B         -2.36788        0.04031       -0.69940
B          0.28256       -1.81098       -0.86895
B          5.45799       -1.65826        1.21273
B          5.67438       -0.10639        1.18289
B          5.46615        1.42448        1.16323
B         -1.19419       -1.01571       -1.52405
