45
isomer_1096.log	Energy: -113406.8664141
B         -2.59961       -1.40784       -0.40958
B         -2.61521       -3.11184        0.19782
B         -1.47759       -3.90903        0.91094
B          0.16891       -3.31159       -0.76167
B         -1.26202       -0.68314       -0.99246
B          1.69300       -0.78438       -0.64778
B          1.46294       -4.02972        0.24460
B         -3.92903       -0.64205       -0.05507
B          1.60301       -2.54229       -0.47603
B         -3.95378       -2.22948        0.27619
B         -0.02435       -4.33812        0.58510
B          2.92503       -3.31378        0.24740
B          3.07450       -1.71885       -0.16916
B          4.60668       -0.91114       -0.07179
B          0.40934        1.83562       -1.11426
B          1.84955        2.55780       -0.35941
B          3.22402        1.69802       -0.20844
B          4.53514        0.72478        0.27836
B          4.54357        2.39386        0.72429
B          3.20242        3.27374        0.32367
B          1.83529        4.10535        0.33267
B          0.42401        3.44676       -0.54419
B          0.40781        4.64749        0.51393
B         -2.41125        3.44062        0.02232
B         -1.01370        4.15100        0.17429
B         -2.49174        1.79415       -0.55737
B         -3.78558        2.64639        0.18613
B         -3.86857        1.03739       -0.09915
B         -1.10668        2.66375       -0.66441
B         -1.33016       -2.36425       -0.83982
B          3.28424       -0.01845       -0.59516
B         -1.15417        0.98158       -1.02641
B          4.28773       -2.55541        0.62181
B         -5.27955       -1.41181        0.70988
B         -5.29757        0.25693        0.25935
B         -5.16266        1.92150        0.60889
B         -6.29587        1.04377        1.25193
B         -6.35745       -0.45567        1.27877
B          1.83259        0.91676       -0.88599
B         -1.31381       -4.01264       -0.64921
B          0.26243       -1.57768       -0.96436
B          5.41275       -1.63996        1.10573
B          5.74324       -0.13520        1.10383
B          5.63835        1.45443        1.15418
B          0.30379        0.11264       -1.02037
