45
isomer_1098.log	Energy: -111444.0878003
B          2.49675        1.90222       -0.44792
B          2.43155        3.53481       -0.05043
B          0.99707        4.31206        0.20445
B         -0.43089        3.43466       -0.35118
B          1.06892        0.96257       -0.75976
B         -1.80527        0.89142       -0.83816
B         -1.84618        4.16323        0.34916
B          3.98555        1.07946       -0.38701
B         -1.78124        2.49154       -0.26072
B          3.86748        2.76338        0.08786
B         -0.44528        4.87526        0.49234
B         -3.24725        3.26608        0.35789
B         -3.21800        1.65077       -0.22570
B         -4.64677        0.78174        0.26571
B         -0.28186       -1.61171       -0.93511
B         -1.63733       -2.36177       -0.31313
B         -3.12135       -1.60855       -0.26090
B         -4.59878       -0.83650        0.24823
B         -4.38444       -2.39103        0.47622
B         -3.05447       -3.23497        0.28767
B         -1.60272       -4.04714        0.26049
B         -0.23353       -3.22105       -0.42306
B         -0.16200       -4.67784        0.38917
B          2.63001       -3.15791       -0.12271
B          1.24426       -4.02409        0.11442
B          2.59811       -1.51612       -0.48483
B          4.01780       -2.30592        0.03311
B          4.03559       -0.60811       -0.40523
B          1.19260       -2.38068       -0.65291
B          1.04238        2.68541       -0.59819
B         -3.25702        0.12284       -0.63863
B          1.11692       -0.65621       -0.77725
B         -4.52475        2.34095        0.52733
B          5.21640        1.99292        0.57998
B          5.26122        0.36499        0.32847
B          5.31901       -1.46769        0.54260
B          6.45717       -0.48525        1.15226
B          6.41115        1.06671        1.16902
B         -1.75649       -0.75379       -0.85593
B          2.07311       -3.61370        0.69338
B         -0.38411        1.83670       -0.89787
B         -6.01102        1.58322        0.73748
B         -6.15504       -0.13566        0.78446
B         -5.90606       -1.85897        0.77090
B          1.02881       -1.14830       -0.16598
