45
isomer_0110.log	Energy: -113379.5942552
B          2.47581        1.69101       -0.47162
B          2.39446        3.33785       -0.04454
B          1.01292        4.12753        0.06762
B         -0.37907        3.31650       -0.49166
B          1.18298        0.74808       -1.01747
B         -1.80253        0.83775       -0.78939
B         -1.79154        4.10513        0.21962
B          3.88946        0.96422       -0.05680
B         -1.84921        2.51486       -0.50928
B          3.76171        2.58942        0.16992
B         -0.38471        4.70548        0.30953
B         -3.16702        3.28162        0.24927
B         -3.18513        1.66041       -0.15127
B         -4.57044        0.75940        0.24623
B         -0.43076       -1.67817       -1.39595
B         -1.64457       -2.49563       -0.38406
B         -3.13093       -1.73534       -0.22725
B         -4.55614       -0.92368        0.10248
B         -4.31313       -2.48439        0.77978
B         -2.91600       -3.28456        0.32393
B         -1.48366       -3.97023        0.39360
B         -0.04392       -3.27996       -0.54801
B         -0.06917       -4.35266        0.68102
B          2.69260       -3.08375        0.45729
B          1.30368       -3.79594        0.55755
B          2.65516       -1.47089       -0.33835
B          3.96007       -2.23225        0.48790
B          4.05417       -0.72923       -0.09663
B          1.66784       -2.75670       -0.80445
B          1.08777        2.49361       -0.71276
B         -3.31807       -0.02141       -0.58684
B          1.26226       -0.89132       -1.12833
B         -4.47648        2.43552        0.73175
B          5.10942        1.87112        0.74496
B          5.29383        0.24221        0.35530
B          5.35417       -1.37730        0.82418
B          6.37549       -0.45021        1.42172
B          6.21581        1.03788        1.44177
B         -1.71623       -0.82053       -0.77638
B         -0.26768       -0.00600       -0.87381
B         -0.36323        1.74256       -1.09719
B         -5.54561        1.48833        1.27384
B         -5.68713       -0.06249        1.28846
B         -5.38907       -1.58988        1.33124
B          0.73182       -2.45797       -1.95694
