45
isomer_1102.log	Energy: -111187.7753384
B         -2.67287        1.75344        0.43842
B         -2.67372        3.39862        0.09059
B         -1.27181        4.24072       -0.13812
B          0.19026        3.40550        0.39327
B         -1.20827        0.86343        0.72426
B          1.66639        0.90646        0.80561
B          1.57522        4.21170       -0.28219
B         -4.12704        0.87325        0.35001
B          1.57780        2.52105        0.27676
B         -4.07711        2.57418       -0.07353
B          0.14667        4.87037       -0.40628
B          3.01153        3.37274       -0.31553
B          3.04750        1.74064        0.21890
B          4.51061        0.94550       -0.29600
B          0.24571       -1.65813        0.82412
B          1.63083       -2.33347        0.18217
B          3.08311       -1.51949        0.15538
B          4.52830       -0.67314       -0.32754
B          4.37731       -2.22746       -0.60280
B          3.08256       -3.12993       -0.44223
B          1.66493       -4.00071       -0.44220
B          0.26298       -3.25187        0.26356
B          0.25106       -4.68509       -0.59246
B         -2.60059       -3.29575       -0.03985
B         -1.18072       -4.09749       -0.30058
B         -2.63552       -1.66575        0.37180
B         -4.02172       -2.49639       -0.17232
B         -4.10860       -0.81474        0.31712
B         -1.19619       -2.47732        0.51617
B         -1.25155        2.59002        0.61490
B          3.14823        0.20375        0.58552
B         -1.19058       -0.75576        0.69272
B          4.32560        2.50570       -0.51058
B         -5.39338        1.76494       -0.59112
B         -5.37228        0.12965       -0.38902
B         -5.35557       -1.69653       -0.65856
B         -6.53230       -0.74301       -1.24027
B         -6.54926        0.80932       -1.21002
B          1.68437       -0.73915        0.77355
B          0.23553       -2.90638        1.64952
B          0.20803        1.79114        0.89132
B          5.84150        1.81552       -0.74089
B          6.05515        0.10611       -0.83955
B          5.87626       -1.62549       -0.87854
B          1.19162       -0.60070        0.35452
