45
isomer_1104.log	Energy: -112110.1469267
B         -2.60298       -1.65118       -0.55422
B         -2.59992       -3.29471       -0.19867
B         -1.19612       -4.13173        0.03700
B          0.26471       -3.29485       -0.49519
B         -1.14030       -0.75835       -0.84111
B          1.73464       -0.79359       -0.91609
B          1.65050       -4.09393        0.18703
B         -4.05983       -0.77472       -0.47306
B          1.64949       -2.40593       -0.37985
B         -4.00599       -2.47350       -0.04144
B          0.22356       -4.75608        0.31115
B          3.08434       -3.25074        0.21950
B          3.11684       -1.62108       -0.32252
B          4.57658       -0.81937        0.19177
B          0.30673        1.76683       -0.94970
B          1.68855        2.44911       -0.30797
B          3.14308        1.63941       -0.27424
B          4.58961        0.79944        0.21574
B          4.43362        2.35460        0.48338
B          3.13667        3.25262        0.31579
B          1.71658        4.11936        0.30864
B          0.31828        3.36323       -0.39660
B          0.30045        4.80041        0.45265
B         -2.54605        3.40039       -0.09954
B         -1.12902        4.20738        0.16047
B         -2.57547        1.76838       -0.50359
B         -3.96519        2.59761        0.03365
B         -4.04624        0.91345       -0.44807
B         -1.13814        2.58336       -0.64869
B         -1.17892       -2.48453       -0.72373
B          3.21401       -0.08564       -0.69614
B         -1.12727        0.86101       -0.81713
B          4.39553       -2.37906        0.41329
B         -5.32567       -1.66558        0.46952
B         -5.30877       -0.03121        0.25979
B         -5.29781        1.79626        0.52078
B         -6.47308        0.84214        1.10444
B         -6.48558       -0.71037        1.08146
B          1.74789        0.85220       -0.89172
B         -0.58899       -1.49550        2.65985
B          0.27898       -1.68280       -1.00078
B          5.90897       -1.68351        0.64359
B          6.11755        0.02695        0.73469
B          5.93368        1.75820        0.76515
B         -0.73949        0.18559        0.41073
