45
isomer_1105.log	Energy: -113505.2294734
B          2.18312        2.09014       -0.53413
B          1.81645        3.65417        0.17130
B          0.38457        4.31363        0.15824
B         -0.89382        3.40666       -0.62096
B          1.00625        1.19431       -1.28130
B         -1.87885        0.63419       -1.10206
B         -2.35156        3.90815        0.19132
B          3.61463        1.45802       -0.03461
B         -2.15583        2.31655       -0.62706
B          3.15971        2.90737        0.55908
B         -1.09076        4.70613        0.34249
B         -3.52981        2.79368        0.22273
B         -3.35585        1.26315       -0.30462
B         -4.42634        0.09195        0.36994
B          0.04229       -1.61645       -1.16543
B         -1.11972       -2.60303       -0.46631
B         -2.64538       -2.10987       -0.13250
B         -4.25580       -1.54748        0.09302
B         -3.64494       -3.05850        0.84819
B         -2.17197       -3.58530        0.42695
B         -0.60474       -4.06671        0.44213
B          0.46403       -3.09471       -0.51393
B          0.88175       -4.23826        0.53353
B          3.34238       -2.86488       -0.92676
B          2.15363       -3.44716       -0.00697
B          2.89974       -0.99342       -1.34145
B          4.39234       -1.76176       -0.79263
B          3.96222       -0.21358       -0.44666
B          1.69527       -1.97381       -0.80095
B          0.71019        2.85584       -0.75793
B         -3.16202       -0.47160       -0.59633
B          1.35588       -0.36280       -1.43467
B         -4.69395        1.74791        0.72385
B          4.19852        2.03968        1.47250
B          4.59841        0.52298        0.90952
B          4.45071       -1.23361        0.95524
B          5.06852       -0.45706        2.15882
B          4.92148        0.99562        2.40610
B         -1.49916       -0.93277       -0.81873
B          2.99346       -1.75011        0.37737
B         -0.63776        1.89311       -1.25347
B         -5.60597        0.67052        1.27080
B         -5.44238       -0.88550        1.32649
B         -4.85751       -2.31713        1.37143
B         -0.27142        0.12169       -1.37160
