45
isomer_1106.log	Energy: -113524.0911618
B         -2.35163       -1.59571       -0.52365
B         -1.95662       -3.16966        0.25081
B         -1.12010       -4.22258       -0.62191
B          0.34395       -3.37063       -1.39316
B         -1.24844       -0.75668       -1.32146
B          1.57015       -0.70566       -0.69448
B          1.51536       -4.06335       -0.04107
B         -3.58012       -0.84391        0.16918
B          1.32456       -2.33583        0.00627
B         -3.27533       -2.36035        0.69380
B          0.28731       -4.80343       -0.45260
B          2.81182       -3.16348        0.37346
B          2.88870       -1.59484        0.02003
B          4.35123       -0.69491        0.27628
B          0.23917        1.87893       -1.31620
B          1.56246        2.62986       -0.49917
B          2.94567        1.85532       -0.15842
B          4.17455        0.93895        0.55827
B          4.10644        2.62158        0.90501
B          2.81188        3.44563        0.28900
B          1.45387        4.26990        0.11561
B          0.12988        3.46450       -0.75354
B          0.03557        4.82955        0.08444
B         -2.64321        3.35448       -0.27558
B         -1.33674        4.18779       -0.22650
B         -2.59316        1.63133       -0.70710
B         -3.85043        2.46222        0.10116
B         -3.84742        0.84576       -0.07725
B         -1.31480        2.59406       -1.07607
B         -1.16655       -2.52788       -1.20341
B          3.10480        0.12193       -0.47222
B         -1.27399        0.89876       -1.31341
B          4.08770       -2.35104        0.91968
B         -4.55413       -1.63784        1.36092
B         -4.94187       -0.08961        0.72299
B         -5.00654        1.58494        0.91922
B         -5.81240        0.70405        1.88063
B         -5.56619       -0.74922        2.10317
B          1.64373        0.97314       -0.95161
B         -0.13029       -3.10450        0.33211
B          0.34520       -1.70509       -1.31112
B          5.12500       -1.38593        1.48685
B          5.33810        0.15357        1.53291
B          5.16537        1.72193        1.51541
B          0.20747        0.06394       -1.22732
