45
isomer_1107.log	Energy: -113675.8868620
B         -2.56253       -1.73058       -0.52958
B         -2.51323       -3.30394        0.03690
B         -1.15614       -4.14920        0.10912
B          0.26938       -3.40276       -0.53847
B         -1.16991       -0.85068       -1.06853
B          1.71817       -0.84333       -0.78881
B          1.64249       -4.16971        0.25824
B         -3.98391       -0.84571       -0.22463
B          1.72492       -2.55118       -0.43125
B         -3.86925       -2.48528        0.27601
B          0.22042       -4.74813        0.35305
B          3.00900       -3.34025        0.27832
B          3.12942       -1.73315       -0.22148
B          4.54683       -0.89358        0.14588
B          0.36884        1.82539       -1.11717
B          1.80159        2.53278       -0.48833
B          3.17315        1.68063       -0.26003
B          4.53222        0.79837        0.23724
B          4.40645        2.44473        0.74962
B          3.09138        3.28080        0.26629
B          1.74746        4.14440        0.24620
B          0.35053        3.38500       -0.51488
B          0.34096        4.74588        0.35198
B         -2.42797        3.33446        0.04004
B         -1.04811        4.15714        0.12296
B         -2.50937        1.75957       -0.48860
B         -3.81009        2.53682        0.29264
B         -3.95652        0.91004       -0.21583
B         -1.11968        2.58998       -0.76531
B         -1.18544       -2.57769       -0.78881
B          3.29369       -0.01587       -0.60924
B         -1.13004        0.84878       -1.04234
B          4.32674       -2.49932        0.77046
B         -5.10421       -1.65227        0.84539
B         -5.19538        0.04397        0.52309
B         -5.06089        1.73827        0.86462
B         -6.08439        0.81339        1.61305
B         -6.10448       -0.70733        1.60590
B          1.78605        0.83051       -0.91085
B         -2.60992        0.01592       -0.74619
B          0.31312       -1.83074       -1.08766
B          5.37342       -1.56938        1.33845
B          5.61974       -0.03305        1.30492
B          5.47269        1.51891        1.30191
B          0.34280       -0.00263       -1.09428
