45
isomer_1108.log	Energy: -112730.1398306
B         -2.61245       -1.67324       -0.42648
B         -2.56140       -3.33355       -0.02269
B         -1.15081       -4.15903        0.22567
B          0.31794       -3.34621       -0.33811
B         -1.20879       -0.69065       -0.75547
B          1.78510       -0.82220       -0.83620
B          1.71037       -4.08911        0.37217
B         -4.03298       -0.81352       -0.34730
B          1.73197       -2.43322       -0.24422
B         -3.96384       -2.49066        0.12475
B          0.28210       -4.73874        0.50745
B          3.13989       -3.23840        0.39082
B          3.16504       -1.62755       -0.19894
B          4.60301       -0.77929        0.29574
B          0.28001        1.75738       -0.92342
B          1.67488        2.44693       -0.30518
B          3.13755        1.65177       -0.24637
B          4.58253        0.83901        0.26977
B          4.42197        2.40652        0.50550
B          3.09578        3.27648        0.29937
B          1.68457        4.12436        0.27480
B          0.28802        3.35869       -0.40253
B          0.27745        4.77958        0.40864
B         -2.55769        3.39258       -0.07709
B         -1.15640        4.19626        0.14291
B         -2.59474        1.74212       -0.45014
B         -3.96080        2.56151        0.08760
B         -4.03264        0.88911       -0.36062
B         -1.17395        2.57518       -0.62425
B         -1.18300       -2.55470       -0.58922
B          3.24253       -0.08052       -0.61962
B         -1.17854        0.87605       -0.76235
B          4.46473       -2.35179        0.57837
B         -5.25784       -1.68158        0.63734
B         -5.25714       -0.04244        0.38622
B         -5.25431        1.76343        0.60141
B         -6.38731        0.81882        1.22118
B         -6.40167       -0.70883        1.24289
B          1.76364        0.83787       -0.84969
B         -1.28707        0.31518        0.74589
B          0.38177       -1.72729       -0.91805
B          5.90525       -1.57595        0.78096
B          6.07740        0.10080        0.81414
B          5.87110        1.76883        0.78909
B         -0.67122       -1.51998       -1.40471
