45
isomer_1109.log	Energy: -113510.9136154
B         -2.56192       -1.73984       -0.90639
B         -2.34036       -3.03954        0.30001
B         -0.92658       -3.86220        0.38323
B          0.40501       -3.28746       -0.50250
B         -1.03047       -0.79314       -0.96591
B          1.80941       -0.75488       -0.80156
B          1.84781       -4.00865        0.20035
B         -3.98177       -0.91948       -0.62769
B          1.87429       -2.42703       -0.55583
B         -3.84455       -2.63882        0.25019
B          0.43979       -4.50633        0.54626
B          3.22827       -3.22413        0.05893
B          3.33080       -1.65747       -0.44713
B          4.74352       -0.77960       -0.16057
B          0.36537        1.67554       -0.86233
B          1.73722        2.45696       -0.21610
B          3.20332        1.75648       -0.19098
B          4.56932        0.83422        0.23307
B          4.46779        2.47494        0.72354
B          3.05673        3.26666        0.41297
B          1.63763        4.09116        0.40103
B          0.32541        3.34634       -0.40546
B          0.22695        4.69313        0.41941
B         -2.52433        3.32765       -0.19074
B         -1.18392        4.10817        0.02888
B         -2.53394        1.62292       -0.47934
B         -3.89892        2.47942       -0.05557
B         -3.96154        0.82876       -0.55263
B         -1.14220        2.54477       -0.70335
B         -1.05850       -2.45540       -0.68015
B          3.32894        0.06348       -0.64403
B         -1.00953        0.80123       -0.72183
B          4.60434       -2.40740        0.43585
B         -4.84767       -1.63013        0.84291
B         -5.22104       -0.04586        0.17630
B         -5.14948        1.66837        0.48280
B         -6.13968        0.78695        1.24532
B         -5.90851       -0.65087        1.51280
B          1.76568        0.83850       -0.81922
B         -2.95460       -1.34511        0.82939
B          0.41685       -1.59838       -0.96402
B          5.66869       -1.47154        0.96600
B          5.89688        0.05907        0.99914
B          5.67896        1.59354        1.07777
B         -2.40948       -0.07499       -0.07283
