45
isomer_0111.log	Energy: -113430.2172469
B         -2.60784       -1.59560       -0.49972
B         -2.61907       -3.29147       -0.10198
B         -1.28018       -4.10407        0.04523
B          0.20752       -3.24453       -0.37770
B         -1.18135       -0.79872       -0.82444
B          1.65819       -0.87670       -0.93714
B          1.52608       -4.10702        0.37619
B         -3.97048       -0.80869       -0.26790
B          1.50326       -2.32060        0.06822
B         -3.93100       -2.42822        0.05237
B          0.12862       -4.69652        0.33315
B          2.89383       -3.25671        0.46842
B          3.05567       -1.76539       -0.17133
B          4.42131       -0.83495        0.20806
B          0.29598        1.77814       -0.85119
B          1.73643        2.54158       -0.41407
B          3.13705        1.71628       -0.31411
B          4.54732        0.80297       -0.04121
B          4.43637        2.46242        0.52224
B          3.07181        3.31508        0.20549
B          1.69856        4.15657        0.24354
B          0.26967        3.40432       -0.43265
B          0.28018        4.73117        0.42986
B         -2.54364        3.41382        0.10780
B         -1.16610        4.17295        0.20684
B         -2.59016        1.74086       -0.63030
B         -3.83094        2.54089        0.25137
B         -3.96632        0.97822       -0.23724
B         -1.19467        2.51556       -0.37305
B         -1.18893       -2.45679       -0.64231
B          3.18925       -0.04696       -0.63006
B         -1.23963        0.90801       -0.89365
B          4.29097       -2.48578        0.77414
B         -5.25118       -1.58463        0.60455
B         -5.13392        0.07683        0.41708
B         -5.17614        1.72440        0.71857
B         -6.23494        0.80571        1.38293
B         -6.27461       -0.68893        1.31559
B          1.70119        0.85560       -0.76579
B          0.15369       -1.34251        0.16571
B          0.27720       -1.82466       -1.50165
B          5.47935       -1.57291        1.13759
B          5.69093       -0.04294        1.05295
B          5.52055        1.51996        0.99594
B          0.21015        0.01395       -1.17637
