45
isomer_1110.log	Energy: -113468.4984940
B          2.29151        1.77194       -0.32798
B          2.19109        3.43837        0.09330
B          0.86545        4.23773       -0.01932
B         -0.53469        3.41359       -0.59729
B          0.97338        0.90044       -1.08516
B         -1.74487        0.75921       -0.83535
B         -1.93505        4.12144        0.07160
B          3.69236        1.04103        0.03944
B         -1.89189        2.43590       -0.51150
B          3.59605        2.66596        0.37779
B         -0.58281        4.81684        0.15325
B         -3.27574        3.17863        0.10746
B         -3.26463        1.59875       -0.27669
B         -4.57012        0.60975        0.19787
B         -0.17308       -1.60008       -0.87433
B         -1.56489       -2.49127       -0.28164
B         -3.03082       -1.80874       -0.13251
B         -4.51571       -1.05663        0.11393
B         -4.18779       -2.61271        0.84724
B         -2.79992       -3.35972        0.39604
B         -1.39141       -4.15796        0.23523
B         -0.10215       -3.29500       -0.55938
B          0.00709       -4.71642        0.19697
B          2.49862       -2.90796        0.01872
B          1.34044       -3.99282       -0.06475
B          2.69848       -1.51818       -1.06582
B          3.97921       -2.27948        0.00817
B          3.83758       -0.64572       -0.18752
B          1.31587       -2.55191       -1.20462
B          0.98122        2.63793       -0.79721
B         -3.21636       -0.14461       -0.57076
B          1.19566       -0.72365       -1.45721
B         -4.57240        2.29175        0.57861
B          4.87343        1.89718        0.98528
B          5.09669        0.23025        0.49939
B          5.17317       -1.48298        0.61842
B          6.02876       -0.54233        1.55941
B          5.89159        0.95933        1.69577
B         -1.65409       -0.82267       -0.66097
B          2.19534        0.00496       -0.13469
B         -0.45910        1.74045       -1.06918
B         -5.63720        1.33295        1.12903
B         -5.66662       -0.20350        1.23237
B         -5.27764       -1.71086        1.36652
B          1.32596       -1.45918        0.19206
