45
isomer_1111.log	Energy: -113387.9495061
B          2.68459        1.63737       -0.57363
B          2.71487        3.36450        0.07208
B          1.37867        4.16049        0.25942
B         -0.08395        3.39219       -0.24449
B          1.30017        0.77274       -0.71135
B         -1.62083        0.95288       -0.69678
B         -1.47305        4.29514        0.32057
B          4.09772        0.96623       -0.37851
B         -1.57103        2.65140       -0.39956
B          4.00429        2.52528        0.11332
B         -0.03022        4.79621        0.49116
B         -2.88670        3.54162        0.23015
B         -3.03739        1.97516       -0.27849
B         -4.50029        1.16326       -0.03787
B         -0.22255       -0.00757       -0.92135
B         -1.84082       -2.44002       -0.28690
B         -3.23464       -1.49755       -0.31643
B         -4.57866       -0.47906        0.03097
B         -4.72627       -2.12117        0.39340
B         -3.38306       -3.04487        0.14584
B         -2.22707       -4.06655        0.15411
B         -0.39459       -3.50147       -0.09232
B         -1.14129       -5.03865        0.21631
B          2.64889       -3.21615        0.18073
B          0.29277       -5.06279        0.20672
B          2.54640       -1.56170       -0.34499
B          3.95912       -2.31885        0.19236
B          3.97148       -0.74807       -0.18165
B          1.13337       -2.51011       -0.12979
B          1.33809        2.44849       -0.23764
B         -3.18971        0.23625       -0.52040
B          1.15266       -0.87021       -0.64887
B         -4.34381        2.82224        0.46501
B          5.43520        1.72322        0.35794
B          5.40193        0.06683       -0.01094
B          5.34919       -1.54714        0.50013
B          6.50393       -0.65327        0.97108
B          6.56394        0.84047        0.88150
B         -1.69514       -0.72114       -0.65050
B          1.46217       -4.15356        0.19509
B         -0.16819        1.78606       -0.68183
B         -5.56827        1.97235        0.82462
B         -5.87653        0.43977        0.78801
B         -5.81338       -1.14278        0.78384
B         -0.33204       -1.82742       -0.43004
