45
isomer_1112.log	Energy: -113675.8867390
B          2.56309        1.73063       -0.53019
B          2.51340        3.30367        0.03705
B          1.15630        4.14899        0.10962
B         -0.26930        3.40292       -0.53833
B          1.16996        0.85075       -1.06776
B         -1.71818        0.84352       -0.78922
B         -1.64235        4.16948        0.25908
B          3.98432        0.84548       -0.22511
B         -1.72499        2.55134       -0.43095
B          3.86965        2.48500        0.27575
B         -0.22020        4.74780        0.35395
B         -3.00883        3.34008        0.27908
B         -3.12920        1.73309       -0.22129
B         -4.54688        0.89384        0.14560
B         -0.36891       -1.82512       -1.11641
B         -1.80203       -2.53263       -0.48862
B         -3.17351       -1.68047       -0.26045
B         -4.53274       -0.79823        0.23625
B         -4.40710       -2.44472        0.74857
B         -3.09197       -3.28074        0.26565
B         -1.74797       -4.14420        0.24640
B         -0.35073       -3.38459       -0.51347
B         -0.34136       -4.74567        0.35271
B          2.42785       -3.33450        0.04037
B          1.04784       -4.15710        0.12356
B          2.50948       -1.75963       -0.48845
B          3.81013       -2.53710        0.29267
B          3.95675       -0.91034       -0.21598
B          1.11952       -2.58966       -0.76450
B          1.18558        2.57773       -0.78866
B         -3.29390        0.01596       -0.60967
B          1.12994       -0.84853       -1.04168
B         -4.32676        2.49933        0.77074
B          5.10470        1.65188        0.84487
B          5.19605       -0.04426        0.52207
B          5.06123       -1.73853        0.86420
B          6.08491       -0.81372        1.61221
B          6.10504        0.70699        1.60511
B         -1.78586       -0.83023       -0.91023
B          2.60996       -0.01613       -0.74603
B         -0.31298        1.83086       -1.08770
B         -5.37379        1.56945        1.33803
B         -5.62018        0.03308        1.30426
B         -5.47316       -1.51881        1.30091
B         -0.34284        0.00302       -1.09397
