45
isomer_1114.log	Energy: -112754.8207212
B          2.60897       -1.65829        0.35569
B          2.60777       -3.29207       -0.04226
B          1.20442       -4.12800       -0.28439
B         -0.25345       -3.31067        0.28501
B          1.14639       -0.77869        0.68136
B         -1.72743       -0.82668        0.78639
B         -1.64378       -4.09705       -0.40269
B          4.06178       -0.77454        0.28156
B         -1.64249       -2.42428        0.20768
B          4.00918       -2.46177       -0.19332
B         -0.21597       -4.75038       -0.55930
B         -3.08082       -3.25871       -0.39786
B         -3.11310       -1.64374        0.18651
B         -4.58114       -0.83450       -0.29108
B         -0.30817        1.73737        0.87091
B         -1.69926        2.43082        0.26199
B         -3.15123        1.61678        0.22299
B         -4.60006        0.78433       -0.27297
B         -4.45242        2.34647       -0.50189
B         -3.15686        3.24473       -0.32510
B         -1.73981        4.11634       -0.31080
B         -0.33130        3.34749        0.35950
B         -0.32771        4.80621       -0.45238
B          2.52949        3.40311        0.03264
B          1.10692        4.21121       -0.19109
B          2.56899        1.76131        0.39395
B          3.94988        2.60939       -0.13658
B          4.04204        0.91365        0.30045
B          1.13049        2.56685        0.57559
B          1.18975       -2.50110        0.51889
B         -3.21155       -0.11885        0.60080
B          1.12746        0.84069        0.69947
B         -4.39707       -2.38725       -0.55486
B          5.32040       -1.63595       -0.69737
B          5.30008       -0.00763       -0.44521
B          5.27992        1.82593       -0.65864
B          6.45209        0.89165       -1.27946
B          6.47025       -0.66087       -1.29683
B         -1.74667        0.81913        0.80480
B          1.55185       -1.09310        2.21485
B         -0.26784       -1.71230        0.83231
B         -5.91534       -1.69167       -0.75074
B         -6.13086        0.01977       -0.79524
B         -5.95336        1.75191       -0.78284
B         -0.01042        0.00295        0.14958
