45
isomer_1115.log	Energy: -113226.4009308
B          2.61811       -1.39104        0.79826
B          3.06424       -3.15420        0.16170
B          1.82636       -4.11021        0.07246
B          0.39153       -3.17550        0.14099
B          1.52300       -0.09002        0.74993
B         -1.27829       -0.82038        0.81770
B         -0.93355       -4.15846       -0.30904
B          3.66873       -0.40972        0.08753
B         -1.03242       -2.34944        0.18451
B          4.02018       -2.03561       -0.09077
B          0.44170       -4.76853       -0.14368
B         -2.25306       -3.35825       -0.56601
B         -2.55666       -1.84200       -0.06332
B         -4.13141       -1.31004       -0.32742
B         -0.63302        1.88444        1.21445
B         -2.13441        2.38688        0.79501
B         -3.31190        1.35405        0.35089
B         -4.46716        0.28587       -0.20061
B         -4.65238        1.93960       -0.57415
B         -3.51103        2.94472       -0.01134
B         -2.31685        3.99827       -0.05341
B         -0.84819        3.50639        0.65832
B         -1.02943        4.74221       -0.31326
B          1.88549        3.67570       -0.20111
B          0.47857        4.32229       -0.15365
B          2.13732        1.96166        0.52160
B          3.16135        2.89013       -0.51137
B          3.45161        1.31180       -0.00883
B          0.70404        2.80409        0.65234
B          1.70153       -2.73472        1.03123
B         -3.02039       -0.33855        0.50434
B          0.86853        1.24745        1.14436
B         -3.65997       -2.79155       -1.03435
B          5.00378       -1.04465       -0.87288
B          4.74133        0.59213       -0.63807
B          4.52159        2.22390       -1.06596
B          5.63565        1.43843       -1.75452
B          5.83190       -0.03641       -1.70044
B         -1.72479        0.72210        0.99748
B          1.35508       -1.34741        1.89330
B         -0.17644       -1.70036        1.68776
B         -4.94696       -2.10654       -1.45566
B         -5.43387       -0.64321       -1.35859
B         -5.54597        0.88498       -1.22402
B          0.56652       -1.40029        0.16828
