45
isomer_1116.log	Energy: -112104.2781984
B         -2.55186        1.80751        0.40671
B         -2.51684        3.44273        0.02320
B         -1.09975        4.25025       -0.21238
B          0.33776        3.40352        0.34036
B         -1.11203        0.90711        0.72289
B          1.76130        0.88078        0.81114
B          1.73813        4.16446       -0.34331
B         -4.01764        0.95505        0.32557
B          1.71004        2.49116        0.24877
B         -3.92392        2.63922       -0.12979
B          0.32437        4.83729       -0.48418
B          3.15381        3.29970       -0.35362
B          3.15939        1.68039        0.21180
B          4.60827        0.84190       -0.27825
B          0.29286       -1.65399        0.87293
B          1.67356       -2.37612        0.24808
B          3.13214       -1.59145        0.21405
B          4.59131       -0.78072       -0.27577
B          4.42091       -2.34125       -0.52606
B          3.09692       -3.21462       -0.34975
B          1.67073       -4.05879       -0.34385
B          0.28518       -3.27164        0.33617
B          0.24493       -4.71456       -0.48972
B         -2.60955       -3.26283        0.01114
B         -1.19255       -4.11551       -0.22912
B         -2.60948       -1.60540        0.39799
B         -4.00015       -2.41728       -0.13652
B         -4.04322       -0.73356        0.32290
B         -1.18040       -2.44906        0.57660
B         -1.12048        2.62161        0.57185
B          3.22905        0.14016        0.60946
B         -1.14074       -0.72066        0.70769
B          4.46424        2.40935       -0.53060
B         -5.25140        1.85002       -0.63777
B         -5.27134        0.21786       -0.40454
B         -5.29933       -1.59766       -0.63915
B         -6.43466       -0.63577       -1.24082
B         -6.42227        0.90852       -1.24331
B          1.74881       -0.77076        0.81056
B         -1.05405       -2.60446       -0.22846
B          0.31955        1.80011        0.87281
B          5.94170        1.66135       -0.73253
B          6.11507       -0.03480       -0.79171
B          5.90645       -1.74107       -0.79600
B         -1.07484       -0.51810        1.75457
