45
isomer_1117.log	Energy: -111645.4199470
B         -2.66907       -1.70496       -0.40462
B         -2.62076       -3.36319       -0.01981
B         -1.19787       -4.19505        0.21775
B          0.27880       -3.36988       -0.33553
B         -1.27235       -0.75130       -0.71052
B          1.78235       -0.83886       -0.81349
B          1.68678       -4.12640        0.35283
B         -4.10043       -0.82905       -0.32960
B          1.70924       -2.45742       -0.24289
B         -4.03532       -2.51925        0.13010
B          0.24544       -4.77777        0.48970
B          3.12440       -3.28046        0.36817
B          3.16018       -1.65600       -0.20219
B          4.61191       -0.82512        0.29074
B          0.33523        1.76076       -0.88437
B          1.71415        2.44646       -0.25593
B          3.16549        1.63937       -0.21453
B          4.61157        0.80939        0.28295
B          4.45665        2.37804        0.53571
B          3.13778        3.26442        0.35094
B          1.71371        4.11744        0.33689
B          0.30081        3.36557       -0.34921
B          0.28432        4.77923        0.47061
B         -2.59285        3.38963       -0.03190
B         -1.16175        4.20346        0.20035
B         -2.66019        1.73690       -0.40840
B         -4.02276        2.56211        0.12537
B         -4.09671        0.88058       -0.33118
B         -1.20963        2.58258       -0.57392
B         -1.23329       -2.57684       -0.56455
B          3.24972       -0.10388       -0.60725
B         -1.26723        0.77852       -0.71173
B          4.45472       -2.39676        0.55139
B         -5.34128       -1.70244        0.63805
B         -5.33417       -0.06142        0.40072
B         -5.32914        1.75559        0.63024
B         -6.47464        0.80437        1.23395
B         -6.49009       -0.73289        1.24143
B          1.78384        0.83303       -0.81698
B         -0.46655       -1.49244       -0.79683
B          0.33606       -1.75697       -0.88047
B          5.92520       -1.65011        0.75304
B          6.11326        0.04557        0.80717
B          5.92404        1.73940        0.80837
B         -0.52960        1.29602       -0.73056
