45
isomer_1120.log	Energy: -113441.9685351
B         -2.45019        1.82447        0.46630
B         -2.37237        3.45253       -0.11272
B         -0.97759        4.21807       -0.27932
B          0.44233        3.42751        0.33954
B         -1.14748        0.95966        1.03414
B          1.77574        0.86094        0.72607
B          1.83592        4.13197       -0.41903
B         -3.72869        1.01929       -0.01651
B          1.84893        2.55094        0.46241
B         -3.79639        2.69244       -0.16142
B          0.45699        4.75270       -0.56034
B          3.19511        3.24670       -0.34646
B          3.21546        1.67873        0.16867
B          4.64478        0.72664        0.04462
B          0.27717       -1.65377        1.30433
B          1.55220       -2.48847        0.56662
B          3.02457       -1.74481        0.31633
B          4.41069       -0.90808       -0.21613
B          4.26372       -2.56431       -0.60032
B          2.82817       -3.27313       -0.17046
B          1.37923       -3.98045       -0.24360
B         -0.07669       -3.24209        0.39436
B          0.04830       -4.50062       -0.66087
B         -2.66323       -3.19392       -0.79499
B         -1.38667       -4.10510       -0.81012
B         -2.47518       -1.74080        0.39461
B         -3.73975       -2.13523       -0.65010
B         -3.68402       -0.64384       -0.00713
B         -1.82035       -3.42109        0.59252
B         -1.08772        2.68708        0.57178
B          3.25565       -0.02888        0.65363
B         -1.28540       -0.63208        1.02364
B          4.49882        2.36200       -0.68885
B         -5.12677        1.93701       -0.51248
B         -5.17589        0.23958       -0.08097
B         -5.16497       -1.31480       -0.68181
B         -6.36999       -0.47055       -1.00030
B         -6.24431        1.01099       -1.06444
B          1.68396       -0.78921        1.00758
B         -1.17062       -2.28373        1.42040
B          0.39973        1.88193        0.97249
B          5.51906        1.32798       -1.14899
B          5.69397       -0.21311       -1.10960
B          5.44421       -1.75600       -1.08868
B          0.24957        0.09491        0.96559
