45
isomer_1121.log	Energy: -113365.1052623
B          2.63841        1.76347       -0.77495
B          2.50265        3.44470       -0.13851
B          1.05281        4.20235        0.00564
B         -0.32821        3.34881       -0.44979
B          1.30771        0.90406       -0.82635
B         -1.64183        0.80101       -0.49662
B         -1.79722        4.18184        0.17015
B          3.94544        0.97710       -0.41815
B         -1.77890        2.51060       -0.34042
B          3.82919        2.62497        0.05989
B         -0.41009        4.77194        0.26446
B         -3.15674        3.30314        0.15660
B         -3.15355        1.64671       -0.19964
B         -4.59009        0.76941       -0.05091
B         -0.15802       -1.73644       -1.07836
B         -1.53197       -2.47662       -0.28065
B         -3.02087       -1.71436       -0.09841
B         -4.49451       -0.88243        0.15511
B         -4.27374       -2.50109        0.71513
B         -2.89126       -3.27075        0.34381
B         -1.47934       -4.02796        0.37227
B         -0.09894       -3.36050       -0.59974
B         -0.05591       -4.43888        0.62125
B          2.68952       -3.27432       -0.48856
B          1.34421       -3.90712        0.14335
B          2.71529       -1.65717       -0.92392
B          3.76285       -2.35543        0.15115
B          3.98461       -0.73166       -0.34640
B          1.29462       -2.71666       -1.34385
B          1.19591        2.61006       -0.56539
B         -3.13873       -0.05659       -0.47507
B          1.30172       -0.89082       -1.03350
B         -4.47499        2.45206        0.53945
B          4.99830        1.87151        0.79263
B          4.85385        0.20345        0.65774
B          4.81897       -1.41919        0.99706
B          5.66411       -0.49964        1.90883
B          5.77483        1.03939        1.78130
B         -1.51092       -0.83173       -0.64581
B          1.46823       -2.17580        0.30170
B         -0.35203        1.72215       -0.81749
B         -5.54028        1.47160        1.02548
B         -5.71919       -0.09942        1.05797
B         -5.49367       -1.63136        1.13175
B         -0.05222        0.03562       -0.96023
