45
isomer_1123.log	Energy: -113345.2621592
B          2.62385       -1.58568        0.30637
B          2.66177       -3.24875       -0.28640
B          1.24310       -4.00694       -0.25963
B         -0.16537       -3.37355        0.63578
B          1.23486       -0.85358        1.00326
B         -1.76353       -0.80120        0.89682
B         -1.54776       -3.88883       -0.40711
B          3.99541       -0.76186        0.08658
B         -1.71319       -2.43291        0.43599
B          3.89810       -2.38614       -0.45772
B         -0.13794       -4.39802       -0.63306
B         -2.96082       -3.19086       -0.36726
B         -3.16007       -1.64514        0.22012
B         -4.53798       -0.80069       -0.21242
B         -0.33329        1.76432        1.17068
B         -1.73563        2.50249        0.43021
B         -3.14455        1.73373        0.19783
B         -4.56810        0.88167       -0.21871
B         -4.32362        2.49813       -0.81686
B         -3.00890        3.31618       -0.31592
B         -1.61307        4.10709       -0.27571
B         -0.28334        3.33143        0.59036
B         -0.19716        4.65857       -0.32556
B          2.51425        3.26684        0.19054
B          1.16955        4.05752        0.02902
B          2.56655        1.58082        0.67022
B          3.83761        2.49231       -0.05425
B          4.04486        0.92667        0.34678
B          1.20509        2.50430        0.90174
B          1.45003       -2.60612        0.73224
B         -3.35123        0.04751        0.60305
B          1.16084        0.78835        1.11359
B         -4.31717       -2.37458       -0.85560
B          5.06631       -1.42074       -1.13254
B          5.03615        0.16659       -0.70430
B          5.15254        1.82895       -0.70641
B          6.07837        1.04898       -1.63529
B          5.95106       -0.43419       -1.91033
B         -1.77081        0.85278        0.85170
B         -0.31064       -0.02461        1.00231
B         -0.37015       -1.72367        1.41670
B         -5.34098       -1.47291       -1.45945
B         -5.56242        0.05766       -1.43030
B         -5.37085        1.58295       -1.42022
B          0.69825       -2.56487        2.05316
