45
isomer_1124.log	Energy: -113582.0132175
B         -2.27525        1.79609        0.12706
B         -2.13288        3.45086       -0.39157
B         -0.73440        4.18170       -0.30717
B          0.61498        3.40271        0.59357
B         -1.01281        0.93571        0.69592
B          1.88835        0.69056        1.11350
B          2.07827        4.03999       -0.11986
B         -3.70932        1.06736       -0.17616
B          1.99452        2.43757        0.61723
B         -3.54327        2.68539       -0.61853
B          0.74030        4.65992       -0.39688
B          3.38476        3.09017       -0.02371
B          3.33157        1.50825        0.47973
B          4.54635        0.48340       -0.17491
B          0.13828       -1.60869        0.53344
B          1.41976       -2.49189        0.02056
B          2.95584       -1.90170        0.01251
B          4.50626       -1.19979       -0.05424
B          4.10089       -2.73262       -0.89695
B          2.67297       -3.43161       -0.60535
B          1.23872       -4.20862       -0.50768
B         -0.03666       -3.25577        0.14301
B         -0.20890       -4.71188       -0.41754
B         -2.90029       -3.18147        0.40659
B         -1.58403       -4.05040        0.07865
B         -2.72442       -1.51312        0.96134
B         -4.22500       -2.24859        0.36941
B         -3.87311       -0.59502        0.18915
B         -1.37370       -2.42612        0.72146
B         -0.88792        2.65433        0.41735
B          3.23732       -0.24615        0.57811
B         -2.29702        0.08548        0.33085
B          4.67517        2.17286       -0.42752
B         -4.94562        1.92059       -0.98601
B         -5.10012        0.26054       -0.55454
B         -5.40450       -1.41571       -0.32932
B         -6.39110       -0.47221       -1.15541
B         -6.23075        1.03013       -1.38878
B          1.62159       -0.88753        0.64040
B          0.31777        0.02501        1.34640
B          0.49712        1.80413        1.06653
B          5.74058        1.20540       -0.93753
B          5.73213       -0.36426       -1.08270
B          5.31830       -1.86334       -1.26266
B         -1.16075       -0.78168        1.37225
