45
isomer_1125.log	Energy: -113311.9213135
B         -2.56282       -1.51901       -0.30832
B         -2.61983       -3.04980        0.58001
B         -1.30095       -3.85220        0.77976
B          0.06304       -3.52589       -0.36350
B         -1.20646       -1.14630       -1.16323
B          2.04271       -0.65000       -1.36230
B          1.41707       -3.86764        0.55446
B         -3.94487       -0.69080       -0.14055
B          1.44965       -2.32988       -0.71363
B         -3.92545       -2.16998        0.56672
B          0.09700       -4.38897        1.00621
B          2.71587       -3.09409        0.19640
B          3.03507       -1.69968       -0.46901
B          4.45550       -0.84956        0.22728
B          0.59640        1.79369       -1.10185
B          1.95670        2.57031       -0.46292
B          3.38285        1.77133       -0.28276
B          4.73152        0.78870        0.07321
B          4.51939        2.38419        0.83419
B          3.20811        3.26422        0.43992
B          1.79476        3.98338        0.55733
B          0.39182        3.21723       -0.29508
B          0.36142        4.41627        0.77697
B         -2.32916        3.18608       -0.01191
B         -0.98723        3.85114        0.39024
B         -2.63074        1.77448       -0.59489
B         -3.88907        2.57988        0.06459
B         -3.90656        0.93634       -0.37535
B         -1.00404        2.16119       -0.58630
B         -1.49593       -2.76805       -0.60760
B          3.45890        0.05870       -0.76825
B         -1.92724        0.33179       -0.87562
B          4.14408       -2.45629        0.63894
B         -5.27439       -1.38249        0.86085
B         -5.17642        0.25057        0.39299
B         -5.27370        1.94511        0.49262
B         -6.37599        1.09406        1.11351
B         -6.38291       -0.41171        1.27568
B          2.01953        0.94868       -1.00216
B         -0.45312        0.48468       -1.24374
B         -0.09556       -2.42645       -1.49772
B          5.33135       -1.71903        1.22721
B          5.61066       -0.19889        1.32994
B          5.44403        1.33593        1.40192
B          0.53502       -0.93125       -1.55427
