45
isomer_1127.log	Energy: -113122.1469456
B          2.55805        1.47103       -0.26043
B          2.47478        3.18228        0.11430
B          1.08609        3.92226        0.40387
B         -0.36443        3.13592       -0.07520
B          1.09081        0.53327       -0.43105
B         -1.83459        0.78871       -0.94891
B         -1.76168        3.95517        0.44625
B          4.08880        0.93024       -0.52987
B         -1.76691        2.30301       -0.28678
B          3.91511        2.47508        0.12507
B         -0.34899        4.54965        0.66316
B         -3.13491        3.15873        0.28418
B         -3.30755        1.69559       -0.38872
B         -4.79188        0.84828       -0.24042
B         -0.71312       -1.03972       -1.88349
B         -1.63583       -2.25135       -0.42485
B         -3.17974       -1.61892       -0.36600
B         -4.60872       -0.79574        0.02145
B         -4.33714       -2.34544        0.70284
B         -2.86943       -3.02052        0.37537
B         -1.52598       -3.86518        0.59541
B         -0.14305       -3.18667       -0.00689
B         -0.12661       -4.47545        0.91774
B          2.54159       -2.74423        0.54998
B          1.25283       -3.77938        0.74115
B          2.68095       -1.42748       -0.75200
B          3.98600       -2.04858        0.26051
B          4.18422       -0.70233       -0.60737
B          1.37120       -2.44500       -0.40978
B          1.11256        2.29777       -0.23298
B         -3.46365        0.04362       -0.89119
B          1.16467       -0.89893       -1.48621
B         -4.50493        2.43466        0.53225
B          5.31463        1.80902        0.47151
B          5.48780        0.17241        0.01492
B          5.41728       -1.48076        0.45176
B          6.60087       -0.53141        0.98194
B          6.52793        0.96244        0.99516
B         -2.07347       -0.75236       -1.41687
B          1.11482       -0.94162        0.25216
B         -0.38638        1.43578       -0.57426
B         -5.64149        1.50646        0.95484
B         -5.80885        0.00699        0.98566
B         -5.53680       -1.53665        1.08863
B         -0.10488       -1.73065       -0.71684
