45
isomer_1128.log	Energy: -112477.7540839
B         -2.62483        1.75160        0.42959
B         -2.61046        3.39311        0.06515
B         -1.20060        4.22114       -0.16609
B          0.25219        3.37920        0.37995
B         -1.16894        0.85235        0.73066
B          1.70562        0.87226        0.82380
B          1.64667        4.16694       -0.29773
B         -4.08594        0.88270        0.34389
B          1.63276        2.48208        0.27829
B         -4.02000        2.57877       -0.09659
B          0.22421        4.83620       -0.43455
B          3.07603        3.31574       -0.31647
B          3.09610        1.68891        0.23458
B          4.55464        0.87642       -0.26602
B          0.26344       -1.68009        0.86218
B          1.64552       -2.37342        0.23300
B          3.10467       -1.57189        0.20417
B          4.55889       -0.74254       -0.28112
B          4.39604       -2.29826       -0.54130
B          3.09313       -3.18824       -0.37713
B          1.66827       -4.04714       -0.37434
B          0.26970       -3.27952        0.31784
B          0.24935       -4.72120       -0.52369
B         -2.59285       -3.30262        0.00270
B         -1.17867       -4.11876       -0.24387
B         -2.61584       -1.66829        0.39770
B         -4.00666       -2.49282       -0.14390
B         -4.08150       -0.80564        0.32814
B         -1.18398       -2.49032        0.55639
B         -1.19730        2.57805        0.60366
B          3.18242        0.15502        0.61714
B         -1.16469       -0.76717        0.71555
B          4.38359        2.43585       -0.49715
B         -5.34083        1.77531       -0.61158
B         -5.33427        0.14205       -0.39287
B         -5.33173       -1.68686       -0.64387
B         -6.49799       -0.72952       -1.24019
B         -6.50208        0.82314       -1.22571
B          1.70994       -0.77369        0.80845
B         -0.56797       -1.65041        1.79266
B          0.25436        1.76988        0.89436
B          5.89461        1.73077       -0.71401
B          6.09434        0.01872       -0.79448
B          5.90113       -1.71164       -0.81673
B          0.44952       -0.62615       -0.62041
