45
isomer_1129.log	Energy: -113406.6840153
B          2.46470        1.77995       -0.56131
B          2.31504        3.41849       -0.00615
B          0.95284        4.19477        0.13771
B         -0.48162        3.40128       -0.48424
B          1.08694        0.93613       -1.10080
B         -1.87519        0.81745       -1.03436
B         -1.83353        4.11890        0.30259
B          3.91663        1.07497       -0.32619
B         -1.87920        2.51258       -0.56290
B          3.70515        2.60468        0.22113
B         -0.47148        4.74939        0.41054
B         -3.15107        3.16857        0.34604
B         -3.25346        1.65901       -0.25040
B         -4.51139        0.63838        0.36521
B         -0.28769       -1.72718       -1.10706
B         -1.68015       -2.51871       -0.56034
B         -3.11679       -1.78982       -0.25227
B         -4.57554       -0.99917        0.07098
B         -4.28115       -2.61529        0.71230
B         -2.89828       -3.35688        0.24386
B         -1.49171       -4.12490        0.24354
B         -0.15491       -3.25749       -0.50709
B         -0.06394       -4.64351        0.32968
B          2.64955       -3.09227       -0.08222
B          1.27509       -3.97183        0.09695
B          2.53832       -1.39511       -0.73371
B          4.19244       -2.69977        0.12622
B          3.88242       -0.59081       -0.33029
B          1.25596       -2.38555       -0.79576
B          1.04920        2.66730       -0.71328
B         -3.33460       -0.09019       -0.59809
B          1.11697       -0.64119       -1.18884
B         -4.44517        2.28752        0.82884
B          5.00069        1.86031        0.79666
B          5.13362        0.18506        0.46234
B          5.01396       -1.55399        0.83244
B          6.00776       -0.53587        1.59912
B          6.04948        0.95036        1.53082
B         -1.76282       -0.79829       -0.90090
B          3.23482       -1.62214        0.74442
B         -0.44063        1.87983       -1.13131
B         -5.52394        1.34156        1.36860
B         -5.64201       -0.20138        1.34531
B         -5.32710       -1.72455        1.31312
B         -0.35818        0.08939       -1.20093
