45
isomer_0113.log	Energy: -113675.8829627
B          2.50786        1.76075       -0.48726
B          2.42575        3.33611        0.03992
B          1.04556        4.15781        0.12258
B         -0.35267        3.38440       -0.51463
B          1.12921        0.84874       -1.04078
B         -1.78763        0.82997       -0.91263
B         -1.75000        4.14395        0.24518
B          3.95532        0.91179       -0.21432
B         -1.80316        2.53196       -0.48936
B          3.80805        2.53843        0.29400
B         -0.34409        4.74599        0.35110
B         -3.09343        3.27939        0.26556
B         -3.17397        1.67937       -0.26059
B         -4.53163        0.79580        0.23944
B         -0.31214       -1.83057       -1.08680
B         -1.72276       -2.55139       -0.42932
B         -3.12822       -1.73478       -0.21999
B         -4.54688       -0.89585        0.14378
B         -4.32458       -2.50081        0.77138
B         -3.00696       -3.34190        0.27878
B         -1.63980       -4.17022        0.25870
B         -0.26726       -3.40308       -0.53902
B         -0.21729       -4.74765        0.35345
B          2.51557       -3.30320        0.03673
B          1.15934       -4.14876        0.10836
B          2.56417       -1.72965       -0.53113
B          3.87097       -2.48374        0.27428
B          3.98515       -0.84376       -0.22684
B          1.18733       -2.57746       -0.78943
B          1.11818        2.59076       -0.76533
B         -3.29340       -0.01709       -0.60907
B          1.17107       -0.85167       -1.07010
B         -4.40811        2.44321        0.74890
B          5.05870        1.73988        0.86669
B          5.19582        0.04616        0.52240
B          5.10565       -1.65008        0.84348
B          6.10500       -0.70531        1.60511
B          6.08314        0.81539        1.61412
B         -1.71686       -0.84360       -0.78551
B          2.60901        0.01706       -0.74416
B         -0.36998        1.82493       -1.11770
B         -5.47491        1.51731        1.30056
B         -5.62050       -0.03497        1.30432
B         -5.37211       -1.57082        1.33780
B         -0.34247       -0.00281       -1.09263
