45
isomer_1131.log	Energy: -113434.6899022
B         -2.60216        1.63319        0.67676
B         -2.51757        3.23955        0.05817
B         -1.16439        4.11734       -0.04571
B          0.31040        3.37844        0.49394
B         -1.12971        0.84025        1.03505
B          1.56557        0.74940        0.09466
B          1.64251        4.14556       -0.34649
B         -4.01888        0.80143        0.41877
B          1.70148        2.50595        0.27530
B         -3.87653        2.36408       -0.14848
B          0.22904        4.72055       -0.36770
B          3.05200        3.30206       -0.37169
B          3.07214        1.69245       -0.05984
B          4.53981        0.82341       -0.01483
B          0.25328       -1.63889        0.62184
B          1.68448       -2.49264        0.51706
B          3.12031       -1.75555        0.40465
B          4.40317       -0.83462       -0.26186
B          4.42503       -2.53274       -0.45580
B          3.00893       -3.30122       -0.11369
B          1.62309       -4.18820       -0.11466
B          0.24118       -3.26431        0.19695
B          0.20734       -4.77293       -0.26527
B         -2.59638       -3.26272       -0.08088
B         -1.21674       -4.10321       -0.17746
B         -2.66913       -1.57958        0.35962
B         -3.99564       -2.41786       -0.25256
B         -4.10146       -0.87353        0.41114
B         -1.27591       -2.45370        0.32793
B         -1.21038        2.55898        0.68072
B          3.13049        0.00762        0.47002
B         -1.21086       -0.69337        0.59409
B          4.42415        2.46840       -0.70933
B         -5.15030        1.65763       -0.68023
B         -5.31267        0.00653       -0.33652
B         -5.28925       -1.67097       -0.68946
B         -6.39252       -0.71776       -1.29446
B         -6.30256        0.76912       -1.33252
B          1.69099       -0.75676        1.08159
B          0.32665        0.07770        1.57898
B          0.35525        1.73508        0.93785
B          5.51556        1.48121       -1.07479
B          5.74403       -0.07825       -0.97968
B          5.58897       -1.64579       -0.90388
B          0.17719       -0.04128       -0.15731
