45
isomer_1132.log	Energy: -113426.2126377
B         -2.54295        1.63465        0.61441
B         -2.48758        3.29906        0.15986
B         -1.10614        4.09950       -0.06375
B          0.34064        3.42006        0.50153
B         -1.14428        0.81485        1.00300
B          1.73784        0.90785        0.84409
B          1.70301        4.14727       -0.32208
B         -4.02586        0.91357        0.39190
B          1.78336        2.56120        0.43688
B         -3.82402        2.47529       -0.12410
B          0.27522        4.69521       -0.43138
B          3.07229        3.31668       -0.32646
B          3.17230        1.75174        0.23187
B          4.51560        0.83318       -0.14860
B          0.25263       -1.72158        1.22956
B          1.36122       -2.34503        0.01382
B          3.00122       -1.73967        0.17720
B          4.42477       -0.81180       -0.20707
B          4.22530       -2.46940       -0.71933
B          2.85282       -3.24193       -0.29041
B          1.49748       -4.04448       -0.09773
B          0.21019       -3.41072        1.04260
B          0.09123       -4.58541       -0.18019
B         -2.38520       -2.96766       -0.20435
B         -1.28422       -4.00285       -0.10594
B         -2.62779       -1.45831        0.56126
B         -3.79872       -2.13737       -0.47241
B         -4.08075       -0.76455        0.36406
B         -1.26760       -2.41454        0.96050
B         -1.15707        2.54398        0.69283
B          3.20398        0.02436        0.56690
B         -1.14545       -0.73060        0.63297
B          4.42889        2.47440       -0.71840
B         -5.06143        1.76745       -0.75533
B         -5.30075        0.12506       -0.38996
B         -5.15397       -1.52513       -0.87840
B         -6.24642       -0.58598       -1.51387
B         -6.15599        0.89491       -1.51142
B          1.69007       -0.80393        0.82769
B          0.30401        0.03791        1.23684
B          0.38232        1.81186        1.03934
B          5.48455        1.51085       -1.21320
B          5.62430       -0.05264       -1.18648
B          5.40001       -1.58202       -1.16582
B         -0.23904       -2.66530       -0.50245
