45
isomer_1136.log	Energy: -112527.4068513
B          2.61820       -1.68004        0.32370
B          2.60912       -3.31466       -0.07071
B          1.20193       -4.14299       -0.31661
B         -0.25344       -3.31600        0.24521
B          1.15946       -0.79129        0.64163
B         -1.71498       -0.82244        0.73532
B         -1.64555       -4.09584       -0.44632
B          4.07639       -0.80488        0.25344
B         -1.63700       -2.42177        0.16042
B          4.01590       -2.49281       -0.21798
B         -0.22094       -4.75776       -0.59582
B         -3.07773       -3.24919       -0.44902
B         -3.10297       -1.63279        0.13170
B         -4.56439       -0.81612       -0.35348
B         -0.28125        1.73355        0.81993
B         -1.66587        2.43368        0.20398
B         -3.12236        1.62797        0.16096
B         -4.57402        0.80282       -0.33896
B         -4.41642        2.36358       -0.57068
B         -3.11640        3.25472       -0.39067
B         -1.69439        4.11815       -0.37263
B         -0.29303        3.34264        0.30494
B         -0.27777        4.79954       -0.51008
B          2.56931        3.38100       -0.01064
B          1.15234        4.19682       -0.24179
B          2.59787        1.73980        0.35438
B          3.98575        2.57872       -0.17249
B          4.06635        0.88344        0.26858
B          1.16335        2.55404        0.52854
B          1.19349       -2.51428        0.48307
B         -3.19424       -0.10645        0.54229
B          1.14983        0.82820        0.65616
B         -4.38827       -2.37048       -0.61315
B          5.33387       -1.67569       -0.71861
B          5.32198       -0.04673       -0.47005
B          5.31328        1.78644       -0.68755
B          6.48248        0.84404       -1.30167
B          6.49172       -0.70859       -1.31559
B         -1.72477        0.82349        0.75009
B          0.31148       -1.79018        2.24431
B         -0.26074       -1.71638        0.78898
B         -5.90170       -1.66657       -0.81659
B         -6.10713        0.04598       -0.86567
B         -5.91966        1.77709       -0.85631
B          0.34089        1.01822        2.10546
