45
isomer_1138.log	Energy: -113415.8841669
B         -2.36298        1.96785        0.45058
B         -2.22037        3.54141       -0.14890
B         -0.80139        4.29130       -0.16330
B          0.56953        3.46492        0.49398
B         -1.04021        1.09295        1.11583
B          1.72385        0.77471        0.83551
B          1.99993        4.12530       -0.17829
B         -3.71987        1.11959       -0.03114
B          1.91902        2.48210        0.58473
B         -3.60969        2.78387       -0.43118
B          0.64911        4.80779       -0.36353
B          3.29909        3.16809       -0.12520
B          3.23140        1.57197        0.24712
B          4.57777        0.61492       -0.13675
B          0.16322       -1.79990        1.02169
B          1.48976       -2.51016        0.29469
B          2.94794       -1.78872        0.08205
B          4.46320       -1.03903       -0.13891
B          4.15017       -2.57543       -0.84945
B          2.77908       -3.32415       -0.46081
B          1.40414       -4.15635       -0.46381
B          0.07539       -3.39551        0.24799
B          0.02167       -4.76654       -0.56397
B         -2.64169       -3.23362       -0.12536
B         -1.39386       -4.17186       -0.23813
B         -2.51148       -1.58040        0.81366
B         -3.81060       -2.26631       -0.22710
B         -3.78205       -0.65350        0.15619
B         -1.40498       -3.01397        0.97393
B         -0.95613        2.75058        0.66192
B          3.14047       -0.13108        0.51647
B         -0.99556       -0.49709        1.35902
B          4.58876        2.29376       -0.55392
B         -4.83718        1.96157       -1.00400
B         -5.07406        0.28301       -0.50992
B         -5.06969       -1.40549       -0.74627
B         -6.05221       -0.49610       -1.52888
B         -5.87038        0.98967       -1.71948
B          1.50274       -0.85248        0.72371
B         -1.31520       -1.85088        1.97386
B          0.47067        1.81874        1.04762
B          5.65677        1.32640       -1.06248
B          5.70174       -0.22057       -1.15072
B          5.34057       -1.72093       -1.28359
B         -2.39643        0.21956        0.60453
