45
isomer_1139.log	Energy: -113434.6885587
B          2.66890       -1.57975        0.35781
B          2.59599       -3.26311       -0.08166
B          1.21616       -4.10398       -0.17625
B         -0.24159       -3.26499        0.19907
B          1.21137       -0.69288        0.59264
B         -1.69120       -0.75701        1.08068
B         -1.62384       -4.18876       -0.11212
B          4.10102       -0.87391        0.40988
B         -1.68469       -2.49220        0.51609
B          3.99538       -2.41837       -0.25328
B         -0.20811       -4.77376       -0.26254
B         -3.00975       -3.30143       -0.11289
B         -3.12076       -1.75563        0.40467
B         -4.40343       -0.83440       -0.26229
B         -0.35525        1.73600        0.94065
B         -1.70192        2.50692        0.27849
B         -3.07122        1.69234       -0.06064
B         -4.53933        0.82367       -0.01632
B         -4.42373        2.46879       -0.70946
B         -3.05135        3.30210       -0.37178
B         -1.64190        4.14556       -0.34602
B         -0.31010        3.37916        0.49537
B         -0.22851        4.72028       -0.36789
B          2.51768        3.23924        0.05835
B          1.16451        4.11704       -0.04615
B          2.60218        1.63318        0.67696
B          3.87665        2.36365       -0.14856
B          4.01872        0.80098        0.41840
B          1.21046        2.55908        0.68173
B          1.27561       -2.45381        0.32667
B         -3.13034        0.00780        0.46933
B          1.12970        0.84010        1.03539
B         -4.42578       -2.53256       -0.45565
B          5.28865       -1.67127       -0.69059
B          5.31267        0.00610       -0.33679
B          5.15084        1.65745       -0.67952
B          6.30280        0.76888       -1.33242
B          6.39226       -0.71800       -1.29495
B         -1.56514        0.75052        0.09616
B         -0.32629        0.07696        1.57903
B         -0.25301       -1.63837        0.62054
B         -5.58898       -1.64526       -0.90489
B         -5.74355       -0.07759       -0.98118
B         -5.51455        1.48176       -1.07670
B         -0.17720       -0.04053       -0.15739
