45
isomer_0114.log	Energy: -112466.7061472
B         -2.62859       -1.64218       -0.37731
B         -2.62400       -3.27455        0.02635
B         -1.21919       -4.10466        0.27974
B          0.23917       -3.28415       -0.28382
B         -1.16720       -0.75854       -0.69734
B          1.70735       -0.79671       -0.78508
B          1.62813       -4.06321        0.41490
B         -4.08492       -0.76334       -0.31493
B          1.62459       -2.39258       -0.20131
B         -4.02920       -2.44872        0.16615
B          0.20172       -4.72105        0.56528
B          3.06222       -3.21980        0.41569
B          3.09229       -1.60676       -0.17411
B          4.55459       -0.79067        0.30938
B          0.27960        1.76199       -0.88701
B          1.66457        2.46247       -0.27225
B          3.11914        1.65372       -0.22175
B          4.56792        0.82814        0.28573
B          4.41341        2.39053        0.50831
B          3.11577        3.28357        0.32066
B          1.69576        4.15010        0.29488
B          0.29400        3.37394       -0.38111
B          0.28042        4.83545        0.42564
B         -2.56887        3.42055       -0.07148
B         -1.15051        4.23446        0.15789
B         -2.60043        1.77738       -0.42728
B         -3.98744        2.62240        0.09205
B         -4.07102        0.92484       -0.33959
B         -1.16372        2.58738       -0.60317
B         -1.20545       -2.48052       -0.52911
B          3.18784       -0.08299       -0.59313
B         -1.15386        0.86082       -0.72100
B          4.37442       -2.34314        0.57748
B         -5.34631       -1.62580        0.65950
B         -5.33023        0.00170        0.40177
B         -5.31780        1.83605        0.60891
B         -6.49036        0.89978        1.22600
B         -6.50314       -0.65273        1.24869
B          1.72090        0.84908       -0.80913
B         -0.32443       -2.44676       -1.37657
B          0.25119       -1.68765       -0.83660
B          5.88903       -1.64151        0.77998
B          6.09825        0.07083        0.81978
B          5.91473        1.80228        0.80027
B         -0.01033        0.20054       -0.48191
