45
isomer_1141.log	Energy: -113273.7829120
B         -2.59168       -0.91477       -0.87481
B         -2.91075       -3.18018       -0.03871
B         -1.45895       -3.96087        0.13024
B         -0.13080       -2.94780       -0.02626
B         -1.07152       -0.61897       -1.07072
B          2.04328       -0.92251       -1.36687
B          1.35606       -3.92798        0.19439
B         -4.00537       -0.48090       -0.45349
B          1.40823       -2.16595       -0.22558
B         -4.38135       -2.50970       -0.18146
B         -0.07945       -4.53491        0.21968
B          2.70042       -3.23273        0.30253
B          3.09923       -1.86736       -0.47903
B          4.53715       -1.04982        0.14472
B          0.53425        1.57927       -0.86695
B          2.01560        2.32471       -0.41281
B          3.44081        1.53069       -0.29088
B          4.83298        0.59405       -0.11578
B          4.64216        2.21141        0.70216
B          3.37457        3.09774        0.29458
B          2.01173        3.93873        0.36695
B          0.58594        3.17870       -0.21842
B          0.62680        4.55758        0.53137
B         -2.21789        3.27545        0.14667
B         -0.81444        3.96234        0.29998
B         -2.47918        1.71978       -0.70990
B         -3.61027        2.65716        0.22886
B         -4.00957        1.21262       -0.44560
B         -0.94176        2.45520       -0.55039
B         -1.61478       -2.06271       -0.04192
B          3.51722       -0.11974       -0.84959
B         -1.05425        0.96072       -1.15563
B          4.16191       -2.63752        0.67295
B         -5.14770       -1.39717        0.58220
B         -5.29345        0.32375        0.21517
B         -5.04233        1.98453        0.64977
B         -6.07331        1.09204        1.41294
B         -6.01591       -0.38959        1.46890
B          1.95602        0.71215       -0.91236
B         -3.22972       -1.63213        0.53512
B          0.53416       -0.30653       -1.27765
B          5.42189       -1.90549        1.17741
B          5.72792       -0.39041        1.18245
B          5.58732        1.13495        1.19714
B          0.05880       -1.34783       -0.09140
