45
isomer_1144.log	Energy: -113723.0969125
B          2.91631        1.87237       -0.39277
B          2.49612        3.34984        0.28551
B          0.94867        3.84297        0.28323
B         -0.23503        2.82585       -0.41347
B          1.76239        0.82463       -1.22111
B         -1.05850        0.22818       -1.34788
B         -1.79242        3.27126        0.01824
B          4.44829        1.30348       -0.09984
B         -1.58992        1.80976       -0.89523
B          3.84338        2.65539        0.79536
B         -0.58033        4.12097        0.40659
B         -3.08682        2.30652       -0.37233
B         -2.76444        0.67590       -0.88904
B         -4.30402        0.82372        0.00603
B         -0.62794       -1.42461       -1.58186
B         -1.49268       -2.44414       -0.40191
B         -3.07593       -1.82080        0.07600
B         -4.52409       -0.87001        0.52861
B         -3.55883       -1.95218        1.64393
B         -2.20847       -2.60280        1.20798
B         -0.63005       -2.94678        1.02918
B         -0.15505       -3.21604       -0.83331
B          0.86528       -3.29040        0.72723
B          2.58095       -2.39316       -1.44399
B          1.45133       -3.35917       -0.90600
B          2.21906       -0.72320       -1.54228
B          3.39951       -1.40089       -0.41293
B          3.44063        0.29830       -0.84303
B          0.92847       -1.83175       -1.70725
B          1.41742        2.46827       -0.66145
B         -3.79112       -0.58931       -0.91003
B          0.53489       -0.32245       -0.66734
B         -4.56379        2.48042        0.06731
B          4.69887        1.53292        1.49612
B          4.23616       -0.21952        0.71435
B          3.43633       -1.75754        1.17842
B          4.40915       -1.07034        2.14129
B          5.02211        0.22542        2.17695
B         -2.26106       -1.02844       -1.25771
B          2.13579       -2.34037        0.40973
B          0.14034        1.33515       -1.15470
B         -5.43299        1.70159        0.88470
B         -5.24515        0.30566        1.53900
B         -4.65904       -0.94998        2.11167
B          0.30622       -1.70470        0.22802
