45
isomer_1145.log	Energy: -113458.6640445
B          2.54786        1.66538       -0.62164
B          2.53434        3.38457       -0.03404
B          1.18161        4.14321        0.05350
B         -0.27618        3.42905       -0.61237
B          1.20660        0.93519       -1.05957
B         -1.75185        0.92043       -0.98810
B         -1.65570        4.15148        0.22289
B          3.91031        0.92017       -0.15472
B         -1.71698        2.56294       -0.47003
B          3.79839        2.52367        0.20708
B         -0.23351        4.70559        0.34627
B         -3.02277        3.31405        0.27291
B         -3.09397        1.73850       -0.22764
B         -4.37917        0.78236        0.36038
B         -0.29220       -1.75119       -1.46257
B         -1.39533       -2.40392        0.01223
B         -3.00218       -1.72448       -0.11462
B         -4.47296       -0.87229        0.08414
B         -4.21190       -2.49815        0.76106
B         -2.87011       -3.27918        0.33495
B         -1.54583       -4.12928        0.06455
B         -0.23243       -3.32836       -0.90563
B         -0.17092       -4.70050       -0.01322
B          2.53675       -3.30427        0.04955
B          1.23634       -4.11706       -0.15782
B          2.58231       -1.60329       -0.46563
B          3.81955       -2.43812        0.29620
B          3.90724       -0.84489       -0.12971
B          1.10424       -2.40556       -0.27181
B          1.19823        2.57504       -0.72834
B         -3.16302       -0.00714       -0.53031
B          1.21597       -0.75040       -0.86265
B         -4.34996        2.45737        0.74741
B          5.09635        1.69433        0.76763
B          5.17030        0.04608        0.41999
B          5.14211       -1.60254        0.83559
B          6.15733       -0.69791        1.51922
B          6.13739        0.79819        1.50430
B         -1.59912       -0.78152       -0.59386
B         -0.10267       -1.25716        0.22237
B         -0.32655        1.81981       -1.18780
B         -5.44673        1.53121        1.24685
B         -5.59281       -0.04485        1.23848
B         -5.33245       -1.56322        1.23737
B         -0.24593        0.00665       -1.21285
