45
isomer_1148.log	Energy: -113326.4940469
B          2.25311        1.80193       -0.61289
B          2.12905        3.51198        0.07627
B          0.73896        4.27273        0.23822
B         -0.66806        3.52760       -0.45343
B          0.88227        1.14821       -1.13778
B         -1.90717        0.80991       -0.88251
B         -2.06893        4.07603        0.45304
B          3.69556        1.11022       -0.21079
B         -2.04783        2.52532       -0.37154
B          3.42719        2.70153        0.19304
B         -0.69595        4.76618        0.55547
B         -3.35097        3.08292        0.46821
B         -3.35431        1.54908       -0.22988
B         -4.59018        0.46938        0.25924
B         -0.24595       -1.65925       -1.41007
B         -1.42655       -2.53914       -0.67884
B         -2.92027       -1.87685       -0.34467
B         -4.40829       -1.18623        0.12123
B         -4.02801       -2.80969        0.63266
B         -2.60771       -3.42790        0.15900
B         -1.13965       -3.99381        0.22095
B          0.26250       -3.07079       -0.39994
B          0.26687       -4.41656        0.55511
B          3.09090       -3.28969        0.61427
B          1.69971       -4.08142        0.74894
B          2.86404       -1.78371       -0.56233
B          4.18909       -2.19420        0.47930
B          3.97786       -0.67398       -0.13567
B          2.00772       -3.19950       -0.53829
B          0.84633        2.75386       -0.66493
B         -3.30306       -0.19032       -0.64233
B          1.16495       -0.32525       -1.31635
B         -4.57561        2.08009        0.90061
B          4.84140        2.04426        0.67777
B          5.09844        0.44250        0.29357
B          5.36249       -1.15915        0.79289
B          6.25248       -0.08904        1.40445
B          6.02710        1.36131        1.34265
B         -1.68307       -0.85468       -1.07556
B          1.32144       -1.77693       -0.97459
B         -0.64172        1.95080       -0.98577
B         -5.53176        1.02335        1.41285
B         -5.55683       -0.54403        1.31373
B         -5.18726       -2.04648        1.23005
B         -0.46031        0.17941       -1.51537
