45
isomer_0115.log	Energy: -111359.8965196
B          2.62331       -1.65318        0.42310
B          2.61718       -3.28977        0.03688
B          1.21145       -4.12208       -0.20393
B         -0.24516       -3.29514        0.35470
B          1.16303       -0.76572        0.73754
B         -1.71129       -0.80203        0.83329
B         -1.63620       -4.08116       -0.33199
B          4.07972       -0.77553        0.34749
B         -1.63054       -2.40406        0.26635
B          4.02224       -2.46591       -0.11543
B         -0.21039       -4.74102       -0.47912
B         -3.07003       -3.23735       -0.33799
B         -3.09808       -1.61811        0.23466
B         -4.56141       -0.80675       -0.25364
B         -0.28253        1.75716        0.90415
B         -1.66892        2.45148        0.28562
B         -3.12385        1.64271        0.24760
B         -4.57421        0.81222       -0.24722
B         -4.41983        2.37210       -0.48686
B         -3.12144        3.26668       -0.31217
B         -1.70112        4.13298       -0.29939
B         -0.29780        3.36363        0.38113
B         -0.28593        4.81645       -0.44119
B          2.56425        3.40602        0.06346
B          1.14553        4.21789       -0.17083
B          2.59627        1.76672        0.43667
B          3.98216        2.60571       -0.09530
B          4.06638        0.91282        0.35419
B          1.16027        2.57901        0.60771
B          1.20033       -2.48940        0.58759
B         -3.19207       -0.08992        0.63766
B          1.15022        0.85381        0.74397
B         -4.38241       -2.36205       -0.50565
B          5.33828       -1.64873       -0.62101
B          5.32335       -0.01857       -0.38061
B          5.31091        1.81347       -0.60727
B          6.48156        0.87030       -1.21744
B          6.49383       -0.68236       -1.22360
B         -1.72430        0.84393        0.83982
B          1.00516       -0.96585        1.38530
B         -0.25526       -1.69283        0.89046
B         -5.89735       -1.66213       -0.71161
B         -6.10617        0.04975       -0.76912
B         -5.92210        1.78125       -0.76855
B         -0.41704       -0.64646       -1.01942
