45
isomer_1152.log	Energy: -112269.5631251
B          2.63042       -1.64595        0.40599
B          2.61786       -3.28339        0.02359
B          1.20902       -4.10969       -0.21971
B         -0.24546       -3.27466        0.33238
B          1.17332       -0.75093        0.71376
B         -1.70142       -0.77361        0.80052
B         -1.63799       -4.05578       -0.35686
B          4.09115       -0.77527        0.33293
B         -1.62637       -2.37732        0.23758
B          4.02723       -2.46646       -0.12622
B         -0.21482       -4.72264       -0.49794
B         -3.06784       -3.20531       -0.36935
B         -3.09012       -1.58461        0.19942
B         -4.54810       -0.76758       -0.29539
B         -0.26094        1.77904        0.86991
B         -1.64211        2.47837        0.24538
B         -3.10069        1.67631        0.20466
B         -4.55335        0.85144       -0.29279
B         -4.39093        2.41002       -0.53558
B         -3.08893        3.29894       -0.35890
B         -1.66462        4.15862       -0.34366
B         -0.26705        3.38433        0.34308
B         -0.24581        4.83514       -0.48258
B          2.59615        3.41262        0.03435
B          1.18198        4.23055       -0.20631
B          2.61933        1.77407        0.41149
B          4.01079        2.60533       -0.11807
B          4.08568        0.91313        0.33565
B          1.18661        2.59345        0.57610
B          1.20304       -2.47512        0.56795
B         -3.17823       -0.05506        0.59855
B          1.16807        0.86865        0.71636
B         -4.37558       -2.32429       -0.54319
B          5.34865       -1.65662       -0.62955
B          5.34060       -0.02585       -0.39300
B          5.33743        1.80570       -0.62399
B          6.50557        0.85564       -1.22825
B          6.51060       -0.69707       -1.23074
B         -1.70675        0.87240        0.80316
B          0.10766       -0.17775        1.76086
B         -0.24975       -1.67106        0.86436
B         -5.88657       -1.61780       -0.75557
B         -6.08721        0.09491       -0.81773
B         -5.89504        1.82552       -0.82064
B         -0.22551       -2.23038       -0.13202
