45
isomer_1154.log	Energy: -113451.7895716
B          2.42662        1.76424       -0.42335
B          2.33748        3.41777        0.24474
B          0.94168        4.16688        0.34875
B         -0.45939        3.40147       -0.36917
B          1.12098        0.96207       -0.92198
B         -1.79223        0.82588       -0.98225
B         -1.88488        4.10961        0.34400
B          3.81117        1.01775       -0.11884
B         -1.85304        2.50676       -0.54287
B          3.68513        2.61026        0.33142
B         -0.51110        4.70518        0.56931
B         -3.20454        3.20121        0.23561
B         -3.22644        1.64784       -0.33599
B         -4.57207        0.66014        0.05214
B         -0.12483       -1.74786       -0.94121
B         -1.59588       -2.49908       -0.35492
B         -3.02060       -1.76616       -0.23144
B         -4.52328       -0.99299       -0.10130
B         -4.28688       -2.57499        0.61188
B         -2.84683       -3.35294        0.33580
B         -1.44739       -4.09368        0.49582
B         -0.04608       -3.13420       -0.08683
B         -0.04414       -4.54860        0.71332
B          2.67997       -3.15809       -0.08727
B          1.36767       -3.86617        0.40276
B          2.62459       -1.52624       -0.64582
B          4.02169       -2.27701        0.01103
B          4.01468       -0.70500       -0.34670
B          1.36868       -2.64123       -1.18363
B          1.04820        2.64378       -0.48734
B         -3.27253       -0.07570       -0.72320
B          1.25582       -0.68708       -0.70035
B         -4.52466        2.32543        0.58117
B          5.06892        1.83599        0.74131
B          5.22279        0.25668        0.19162
B          5.36319       -1.42206        0.40010
B          6.39721       -0.49446        1.07651
B          6.24228        0.97842        1.25549
B         -1.65010       -0.82648       -0.86094
B          1.28547       -2.04875        0.46960
B         -0.40151        1.87178       -1.03125
B         -5.61674        1.36047        1.04064
B         -5.71941       -0.17657        1.03626
B         -5.40364       -1.70266        1.07066
B         -0.25602        0.04837       -1.08330
