45
isomer_1155.log	Energy: -113401.7564702
B         -2.92047        1.55528        0.98815
B         -2.94534        3.13015        0.38771
B         -1.68754        3.95975        0.07211
B         -0.19802        3.18263        0.40697
B         -1.84930        0.32967        0.91207
B          1.59433        0.98040        0.93703
B          1.09577        4.18091       -0.32030
B         -4.08342        0.62853        0.37421
B          1.42074        2.62921        0.46555
B         -4.20956        2.25283        0.12211
B         -0.36662        4.62263       -0.29177
B          2.52472        3.49813       -0.45443
B          2.86958        1.99509        0.16256
B          4.32944        1.27399       -0.25494
B          0.49025       -1.68849        0.91805
B          2.05686       -2.33093        0.56799
B          3.33558       -1.39873        0.45928
B          4.54955       -0.39629       -0.22894
B          4.61071       -2.03808       -0.66551
B          3.38331       -2.98303       -0.15705
B          2.10809       -3.98288       -0.09634
B          0.61515       -3.28442        0.61056
B          0.77657       -4.62936       -0.26454
B         -1.98873       -3.19694       -0.31824
B         -0.71254       -4.05554       -0.06982
B         -2.10274       -1.47347        0.16053
B         -3.33964       -2.42432       -0.61411
B         -3.67139       -0.96618       -0.03950
B         -1.01537       -2.75259        1.20679
B         -1.48522        2.11676        0.57766
B          3.22571        0.34256        0.57319
B         -1.03119       -1.01880        1.28651
B          3.99601        2.84385       -0.87728
B         -5.41564        1.36023       -0.52354
B         -5.03357       -0.25125       -0.58061
B         -4.71575       -1.80910       -1.18798
B         -5.91083       -1.01881       -1.75048
B         -6.24231        0.41407       -1.44578
B          1.89529       -0.67057        1.13302
B          0.30167        0.03572        1.33933
B          0.04784        1.63429        0.86571
B          5.18172        2.06243       -1.36679
B          5.54748        0.54056       -1.33635
B          5.54969       -1.03113       -1.29266
B         -0.58086       -2.16876       -0.39011
