45
isomer_1156.log	Energy: -113596.1340342
B          2.55377       -1.75298        0.41023
B          2.55064       -3.42265       -0.01515
B          1.18703       -4.22972       -0.14571
B         -0.30793       -3.42324        0.34913
B          1.18515       -0.90230        0.82000
B         -1.71224       -0.81361        0.84697
B         -1.69704       -4.17722       -0.34897
B          3.94655       -0.86466        0.24367
B         -1.72511       -2.51919        0.24725
B          3.93460       -2.57098       -0.20134
B         -0.27481       -4.77196       -0.47116
B         -3.08045       -3.27935       -0.32902
B         -3.14260       -1.70521        0.20403
B         -4.52377       -0.82637       -0.20959
B         -0.36977        1.77103        0.91191
B         -1.74992        2.52393        0.26067
B         -3.15742        1.70421        0.21230
B         -4.51512        0.82862       -0.20941
B         -4.51531        2.49709       -0.61368
B         -3.09731        3.27698       -0.36360
B         -1.70603        4.16500       -0.39015
B         -0.33998        3.41969        0.34370
B         -0.28275        4.75089       -0.49691
B          2.51865        3.40771       -0.00240
B          1.17825        4.20294       -0.16468
B          2.52027        1.71277        0.43486
B          3.90426        2.58651       -0.14503
B          3.94329        0.91115        0.25299
B          1.10849        2.62949        0.59097
B          1.13084       -2.64347        0.57291
B         -3.23931       -0.01460        0.57824
B          1.13443        0.88136        0.85421
B         -4.51883       -2.50540       -0.59125
B          5.23987       -1.71217       -0.63624
B          5.20300        0.00588       -0.41073
B          5.22712        1.74504       -0.60718
B          6.32100        0.78842       -1.23184
B          6.32665       -0.74193       -1.25499
B         -1.73540        0.86036        0.87063
B          2.49401       -0.00266        0.30349
B         -0.32909       -1.74359        0.81512
B         -5.71460       -1.59345       -0.86907
B         -5.87544       -0.00933       -0.87741
B         -5.69828        1.55828       -0.90922
B         -0.29938       -0.00132        1.37147
