45
isomer_1157.log	Energy: -113412.6473821
B         -2.44544        1.79088        0.56163
B         -2.45205        3.40924        0.04795
B         -1.08062        4.18220       -0.22230
B          0.30213        3.39717        0.33458
B         -1.15325        0.92078        1.05564
B          1.78977        0.96150        0.98670
B          1.70879        4.11154       -0.53314
B         -3.79921        0.95992        0.21283
B          1.80513        2.59826        0.28904
B         -3.74490        2.58078       -0.07228
B          0.29269        4.72955       -0.58248
B          3.05054        3.21537       -0.54637
B          3.08892        1.64383        0.12290
B          4.43738        0.72996       -0.37264
B          0.31994       -1.65832        1.30995
B          1.60739       -2.45315        0.59622
B          3.08860       -1.67640        0.41244
B          4.60107       -0.88329        0.22476
B          4.29420       -2.48970       -0.44259
B          2.93414       -3.28137       -0.00601
B          1.52054       -3.97119       -0.17529
B         -0.00085       -3.19003        0.43108
B          0.17308       -4.38460       -0.69290
B         -2.58516       -3.19715       -0.96625
B         -1.21574       -3.94692       -0.99886
B         -2.45065       -1.70198        0.49920
B         -3.73313       -2.25618       -0.57649
B         -3.75804       -0.77165        0.05939
B         -1.77202       -3.24978        0.37776
B         -1.08945        2.64579        0.82589
B          3.27773        0.05317        0.69945
B         -1.25791       -0.62565        1.19117
B          4.38800        2.32291       -0.94815
B         -5.10559        1.74430       -0.53442
B         -5.14853        0.13309       -0.15651
B         -5.09786       -1.46664       -0.80524
B         -6.17503       -0.54001       -1.31690
B         -6.22634        0.92774       -1.16003
B          1.68837       -0.77666        0.87506
B          0.29089        0.11978        1.00402
B          0.38006        1.93338        1.14380
B          5.51074        1.40616       -1.34576
B          5.59369       -0.14495       -1.18765
B          5.31896       -1.61014       -1.06567
B         -1.17095       -2.24157        1.44646
