45
isomer_0116.log	Energy: -113471.1377367
B          2.67795        1.64941       -0.65443
B          2.64217        3.29790       -0.14905
B          1.27328        4.13689        0.01855
B         -0.16822        3.37899       -0.52810
B          1.28030        0.79945       -1.06454
B         -1.68912        0.89515       -0.89229
B         -1.52034        4.20956        0.20515
B          4.10580        0.89050       -0.40589
B         -1.65719        2.60509       -0.55136
B          3.95988        2.47443        0.14816
B         -0.10069        4.76637        0.26622
B         -2.91112        3.39135        0.24902
B         -3.06350        1.82473       -0.23947
B         -4.46211        0.98096        0.19276
B         -0.27441       -1.75795       -1.04618
B         -1.57792       -2.40004       -0.15979
B         -3.12795       -1.62453       -0.19102
B         -4.51250       -0.66346        0.19546
B         -4.33375       -2.30965        0.78336
B         -3.03759       -3.15736        0.29083
B         -1.64285       -4.06353        0.10195
B         -0.32881       -3.45785       -1.14695
B         -0.28376       -4.73454       -0.01266
B          2.53238       -3.25365        0.00784
B          1.09899       -4.08968        0.01013
B          2.59451       -1.64279       -0.59522
B          3.80574       -2.39722        0.20473
B          3.94608       -0.77831       -0.23997
B          1.14585       -2.51729       -0.56942
B          1.30516        2.51762       -0.71223
B         -3.23461        0.12100       -0.54924
B          1.25569       -0.78918       -1.06088
B         -4.28677        2.63606        0.72437
B          5.21507        1.73147        0.73847
B          4.91711        0.07375        0.75238
B          4.98927       -1.57061        0.99320
B          5.97606       -0.68485        1.74147
B          6.17118        0.80914        1.53243
B         -1.68850       -0.72728       -0.81811
B         -0.17243       -3.00642        0.57029
B         -0.23310        1.81416       -1.07164
B         -5.36910        1.75195        1.26311
B         -5.58401        0.18935        1.29428
B         -5.41491       -1.34840        1.31451
B         -0.21721        0.02934       -0.94024
