45
isomer_1160.log	Energy: -113431.3822634
B         -2.57861        1.69551        0.72593
B         -2.56699        3.34518        0.20679
B         -1.17817        4.15335        0.04760
B          0.30492        3.44006        0.57953
B         -1.10631        0.88441        1.05980
B          1.65868        0.86690        0.69449
B          1.63890        4.20939       -0.20183
B         -3.93705        0.85420        0.33513
B          1.70986        2.57283        0.48911
B         -3.89772        2.51267       -0.06729
B          0.21746        4.76318       -0.29521
B          3.04561        3.37549       -0.19544
B          3.14462        1.79092        0.22308
B          4.53129        0.91503       -0.18088
B          0.32998       -1.64949        0.85646
B          1.75692       -2.46455        0.41367
B          3.11100       -1.63928        0.12768
B          4.56680       -0.73901       -0.20858
B          4.42011       -2.37842       -0.71395
B          3.07820       -3.25495       -0.25164
B          1.76078       -4.15671       -0.08647
B          0.35929       -3.33946        0.74028
B          0.38863       -4.73561       -0.10479
B         -2.30553       -3.20738       -0.10715
B         -1.03907       -4.07134        0.13621
B         -2.37361       -1.58010        0.33564
B         -3.64283       -2.36787       -0.48388
B         -3.89392       -0.83991        0.20378
B         -1.18343       -2.72187        1.37332
B         -1.17646        2.55173        0.59692
B          3.15571        0.06620        0.38662
B         -1.09754       -0.82878        0.98747
B          4.40412        2.59310       -0.61384
B         -5.02701        1.73354       -0.81937
B         -5.05851        0.02824       -0.64739
B         -4.89043       -1.61865       -1.05745
B         -5.97295       -0.68024       -1.74655
B         -6.00737        0.82347       -1.65363
B          1.70222       -0.74077        0.62920
B         -2.58810        0.03213        1.12636
B          0.34730        1.72048        0.99451
B          5.51388        1.67224       -1.17530
B          5.71831        0.13682       -1.18738
B          5.52239       -1.46111       -1.21859
B         -0.86534       -2.26159       -0.25297
