45
isomer_1161.log	Energy: -113441.9671841
B         -2.45008        1.82368        0.46812
B         -2.37238        3.45191       -0.11133
B         -0.97784        4.21788       -0.27812
B          0.44212        3.42761        0.33983
B         -1.14727        0.95911        1.03547
B          1.77477        0.86092        0.72294
B          1.83520        4.13221       -0.41976
B         -3.72834        1.01868       -0.01451
B          1.84895        2.55121        0.46210
B         -3.79604        2.69179       -0.16004
B          0.45626        4.75293       -0.55986
B          3.19476        3.24717       -0.34796
B          3.21488        1.67909        0.16606
B          4.64441        0.72710        0.04513
B          0.27722       -1.65395        1.30417
B          1.55240       -2.48859        0.56663
B          3.02466       -1.74461        0.31605
B          4.41076       -0.90771       -0.21651
B          4.26450       -2.56430       -0.59950
B          2.82864       -3.27305       -0.17031
B          1.37977       -3.98040       -0.24364
B         -0.07663       -3.24193        0.39406
B          0.04890       -4.50033       -0.66128
B         -2.66327       -3.19402       -0.79472
B         -1.38622       -4.10474       -0.81006
B         -2.47577       -1.74117        0.39499
B         -3.74028       -2.13571       -0.65019
B         -3.68540       -0.64486       -0.00633
B         -1.82038       -3.42151        0.59289
B         -1.08767        2.68647        0.57262
B          3.25489       -0.02863        0.65233
B         -1.28615       -0.63234        1.02448
B          4.49907        2.36253       -0.68923
B         -5.12617        1.93711       -0.51232
B         -5.17610        0.24009       -0.08201
B         -5.16539       -1.31438       -0.68313
B         -6.36953       -0.46957       -1.00285
B         -6.24347        1.01187       -1.06631
B          1.68404       -0.78911        1.00737
B          0.24943        0.09430        0.96549
B          0.39981        1.88160        0.97239
B          5.51947        1.32816       -1.14799
B          5.69477       -0.21275       -1.10835
B          5.44528       -1.75580       -1.08731
B         -1.17057       -2.28397        1.42048
