45
isomer_1162.log	Energy: -110846.2336118
B          2.56365        1.76136       -0.44273
B          2.54233        3.39850       -0.05941
B          1.12910        4.21703        0.18471
B         -0.32099        3.37443       -0.36747
B          1.11134        0.85864       -0.75061
B         -1.76350        0.86580       -0.83662
B         -1.71754        4.14763        0.32256
B          4.02910        0.89857       -0.37053
B         -1.69699        2.46958       -0.27281
B          3.95614        2.58913        0.08958
B         -0.29797        4.82210        0.46364
B         -3.14277        3.28941        0.33494
B         -3.15641        1.66894       -0.23471
B         -4.60982        0.84375        0.26002
B         -0.30924       -1.67898       -0.90779
B         -1.68645       -2.38612       -0.28330
B         -3.14933       -1.59199       -0.24176
B         -4.60630       -0.77528        0.25652
B         -4.43538       -2.33309        0.49841
B         -3.12864       -3.21484        0.32089
B         -1.69970       -4.06679        0.30481
B         -0.30652       -3.28457       -0.38186
B         -0.27721       -4.73570        0.44300
B          2.55687       -3.29752       -0.07388
B          1.14722       -4.12323        0.16669
B          2.57108       -1.65867       -0.45012
B          3.96716       -2.48267        0.07862
B          4.03277       -0.78984       -0.37417
B          1.14278       -2.48570       -0.61481
B          1.13177        2.58289       -0.60386
B         -3.23635        0.13915       -0.63467
B          1.11486       -0.76094       -0.75411
B         -4.44567        2.40123        0.50864
B          5.28206        1.78618        0.59212
B          5.28277        0.15552        0.35468
B          5.28958       -1.67614        0.58464
B          6.45272       -0.72011        1.18913
B          6.44934        0.83261        1.19248
B         -1.75992       -0.78022       -0.84018
B          1.34924        0.42464       -0.12220
B         -0.31673        1.77113       -0.90034
B         -5.95276        1.68645        0.72101
B         -6.14410       -0.02735        0.78228
B         -5.94257       -1.75690        0.78417
B          1.00100       -2.35803        0.08439
