45
isomer_1163.log	Energy: -113396.8598099
B          2.50477        1.76870       -0.57982
B          2.48805        3.41063       -0.14647
B          1.10254        4.19632        0.09068
B         -0.33468        3.39803       -0.46059
B          1.13968        0.91223       -1.06360
B         -1.82069        0.87747       -1.05145
B         -1.67229        4.13008        0.36799
B          3.93083        0.95357       -0.31343
B         -1.78795        2.55908       -0.51009
B          3.81864        2.58810        0.11352
B         -0.28221        4.74477        0.43059
B         -3.02048        3.22899        0.41852
B         -3.14856        1.72129       -0.19456
B         -4.44381        0.75794        0.38761
B         -0.33605       -1.69316       -1.06165
B         -1.72941       -2.50148       -0.59954
B         -3.14785       -1.73349       -0.32344
B         -4.59507       -0.86325       -0.00358
B         -4.33678       -2.50764        0.60249
B         -2.99582       -3.31958        0.12931
B         -1.57387       -4.12145        0.13380
B         -0.24465       -3.30795       -0.62970
B         -0.15818       -4.58542        0.34524
B          2.83437       -3.54028       -0.25540
B          1.29842       -3.97994        0.16128
B          2.50815       -1.45940       -0.40824
B          3.85567       -2.41138        0.10896
B          3.93757       -0.69738       -0.24306
B          1.06267       -2.28422       -0.33485
B          1.13659        2.62657       -0.77893
B         -3.30472        0.02373       -0.61816
B          1.17784       -0.66322       -1.03634
B         -4.37167        2.40596        0.86838
B          5.11020        1.83595        0.65823
B          4.74769        0.16669        0.88767
B          5.11674       -1.48007        0.75370
B          6.12888       -0.58235        1.39892
B          6.16263        0.94246        1.28460
B         -1.76306       -0.75360       -0.84439
B          2.18150       -2.58086        0.80718
B         -0.37032        1.88421       -1.15607
B         -5.48391        1.49459        1.34373
B         -5.64445       -0.06310        1.28367
B         -5.36657       -1.57909        1.21533
B         -0.31041        0.08098       -1.17802
