45
isomer_1164.log	Energy: -113434.9418372
B         -2.45249       -1.73250       -0.39549
B         -2.62927       -3.21965        0.82601
B         -1.27499       -4.01256        0.90773
B         -0.02616       -3.23529       -0.35912
B         -1.26735       -0.65370       -0.95327
B          1.70635       -0.78697       -1.01897
B          1.47840       -3.96727        0.28117
B         -3.76184       -0.75197       -0.04188
B          1.61073       -2.48282       -0.53761
B         -3.76290       -2.21557        0.61773
B          0.14589       -4.44795        0.74549
B          2.90777       -3.25648        0.13438
B          3.07833       -1.71054       -0.39489
B          4.45679       -0.85805        0.11391
B          0.37135        1.86537       -0.91493
B          1.79644        2.53536       -0.30575
B          3.18291        1.68723       -0.18502
B          4.63445        0.79929       -0.05862
B          4.45924        2.39715        0.70255
B          3.14105        3.27179        0.38898
B          1.77184        4.13382        0.47492
B          0.37306        3.40808       -0.26933
B          0.36646        4.74064        0.60086
B         -2.43939        3.44842        0.08964
B         -1.06829        4.19526        0.29379
B         -2.47231        1.78323       -0.50583
B         -3.81106        2.65984        0.10116
B         -3.79823        1.00767       -0.15017
B         -1.12027        2.65250       -0.59251
B         -1.77684       -3.37253       -0.52158
B          3.27746        0.00189       -0.72895
B         -1.16853        0.94985       -0.99355
B          4.32803       -2.50979        0.54531
B         -5.18380       -1.39354        0.69754
B         -5.15892        0.17676        0.07677
B         -5.17163        1.86356        0.42809
B         -6.29361        0.97657        0.98705
B         -6.34764       -0.50508        1.04361
B          1.74684        0.87124       -0.72161
B         -1.12924       -2.29785       -1.43876
B          0.29619       -1.67076       -1.23354
B          5.49319       -1.68214        1.01475
B          5.71690       -0.13326        1.04928
B          5.52120        1.39905        1.13040
B          0.25391        0.07168       -0.92973
