45
isomer_1166.log	Energy: -113478.0288631
B          2.58457        1.69692       -0.63277
B          2.49740        3.10933        0.41961
B          1.13317        3.85979        0.49954
B         -0.12797        3.32115       -0.58097
B          1.28753        0.71930       -0.72494
B         -1.66771        0.75953       -0.73132
B         -1.64060        4.12732        0.14477
B          3.96915        0.82208       -0.29407
B         -1.65090        2.47671       -0.35645
B          3.86027        2.29971        0.36822
B         -0.28668        4.52579        0.56227
B         -3.01707        3.31134        0.08261
B         -3.11201        1.70957       -0.38808
B         -4.57764        0.85781       -0.15752
B         -0.35431       -1.86250       -1.04220
B         -1.76875       -2.55294       -0.44957
B         -3.15798       -1.74477       -0.22385
B         -4.50348       -0.78114        0.20773
B         -4.43197       -2.44540        0.72153
B         -3.07993       -3.28650        0.35320
B         -1.71313       -4.14471        0.41036
B         -0.32996       -3.38435       -0.35269
B         -0.31012       -4.69496        0.57016
B          2.47825       -3.31474        0.06441
B          1.10287       -4.09819        0.27668
B          2.52112       -1.65573       -0.57312
B          3.82137       -2.50641        0.11414
B          3.94133       -0.93081       -0.30047
B          1.15719       -2.60619       -0.63165
B          1.33228        2.73454       -1.06935
B         -3.25832       -0.04286       -0.67047
B          1.15733       -0.90950       -1.03306
B         -4.38348        2.46988        0.45511
B          5.24166        1.51545        0.63576
B          5.28003       -0.09071        0.11830
B          5.20715       -1.73490        0.52733
B          6.30070       -0.88601        1.16963
B          6.32329        0.58936        1.22473
B         -1.78346       -0.89128       -0.93612
B          1.12863        2.03694        0.53449
B         -0.17517        1.60007       -0.45054
B         -5.44645        1.55352        1.01300
B         -5.73256        0.03645        1.05777
B         -5.56710       -1.50863        1.13382
B         -0.24854       -0.05932       -1.06598
