45
isomer_1168.log	Energy: -113675.8186279
B         -2.53735       -1.74596       -0.50753
B         -2.47073       -3.31553        0.04254
B         -1.10131       -4.15186        0.12232
B          0.30763       -3.39447       -0.52397
B         -1.15105       -0.84820       -1.06041
B          1.74675       -0.83717       -0.85463
B          1.69275       -4.15439        0.25840
B         -3.97108       -0.87587       -0.21987
B          1.76416       -2.54213       -0.46300
B         -3.84214       -2.51006        0.28394
B          0.27969       -4.74624        0.35915
B          3.04774       -3.30691        0.27537
B          3.15153       -1.70589       -0.24292
B          4.54238       -0.84777        0.18796
B          0.33993        1.83172       -1.10621
B          1.76645        2.54149       -0.46455
B          3.15306        1.70445       -0.24427
B          4.54223        0.84511        0.19008
B          4.37030        2.46908        0.76110
B          3.05030        3.30534        0.27459
B          1.69599        4.15367        0.25794
B          0.30991        3.39377       -0.52265
B          0.28328        4.74622        0.35919
B         -2.46828        3.31653        0.04234
B         -1.09827        4.15202        0.12300
B         -2.53587        1.74685       -0.50658
B         -3.84048        2.51169        0.28417
B         -3.97037        0.87767       -0.21992
B         -1.15128        2.58379       -0.77867
B         -1.15325       -2.58371       -0.77947
B          3.29567       -0.00036       -0.60859
B         -1.14983        0.84793       -1.05943
B          4.36776       -2.47053        0.76208
B         -5.08569       -1.69431        0.85381
B         -5.19723        0.00131        0.52178
B         -5.08482        1.69699        0.85378
B         -6.09597        0.76267        1.60823
B         -6.09629       -0.75929        1.60831
B          1.74840        0.83674       -0.85789
B         -2.60993        0.00045       -0.74350
B          0.33830       -1.83207       -1.10580
B          5.42541       -1.54633        1.32198
B          5.62080       -0.00093        1.30387
B          5.42827        1.54486        1.32072
B          0.34253       -0.00036       -1.10679
