45
isomer_0117.log	Energy: -111886.3489420
B         -2.58294       -1.59113       -0.57032
B         -2.60186       -3.23484       -0.21612
B         -1.20977       -4.08871        0.02838
B          0.26452       -3.26889       -0.49317
B         -1.10781       -0.71557       -0.84653
B          1.76696       -0.78501       -0.90201
B          1.63602       -4.08494        0.19777
B         -4.02976       -0.69744       -0.49833
B          1.65896       -2.39661       -0.36770
B         -3.99909       -2.39706       -0.06776
B          0.20048       -4.73013        0.31165
B          3.07955       -3.25891        0.24069
B          3.13513       -1.62934       -0.29974
B          4.60079       -0.84547        0.22512
B          0.36990        1.79227       -0.94318
B          1.75535        2.45756       -0.29152
B          3.19986        1.63056       -0.24858
B          4.63292        0.77306        0.25052
B          4.49365        2.32976        0.51838
B          3.20866        3.24329        0.34273
B          1.79907        4.12690        0.32665
B          0.39670        3.38800       -0.38870
B          0.39020        4.82466        0.46160
B         -2.46895        3.45906       -0.11106
B         -1.04421        4.24892        0.15923
B         -2.51505        1.82782       -0.51667
B         -3.89841        2.67315        0.01181
B         -3.99624        0.99043       -0.47184
B         -1.06716        2.62573       -0.65132
B         -1.16777       -2.44126       -0.73084
B          3.25312       -0.09489       -0.67142
B         -1.07566        0.90350       -0.82112
B          4.39967       -2.40306        0.44410
B         -5.31250       -1.57386        0.43489
B         -5.27471        0.06035        0.22663
B         -5.24377        1.88736        0.48921
B         -6.43426        0.94687        1.06409
B         -6.46509       -0.60536        1.03973
B          1.79963        0.86049       -0.87618
B         -1.82950       -1.35769        2.81732
B          0.30142       -1.65675       -0.99731
B          5.91968       -1.72575        0.68526
B          6.14799       -0.01797        0.77919
B          5.98455        1.71532        0.80984
B         -1.07028       -1.16443        0.11665
