45
isomer_1170.log	Energy: -113495.9023885
B          3.15793        0.29370       -0.98620
B          3.57457        2.13936       -0.93071
B          2.53534        3.22034       -0.47577
B          0.92268        2.81342       -0.40220
B          1.48210        0.01531       -1.39712
B         -1.22875        0.90838       -0.64222
B         -0.03972        3.98011        0.39417
B          4.59420       -0.44042       -0.91293
B         -0.68675        2.46196       -0.11521
B          4.72431        1.18567       -0.74575
B          1.44499        4.21350        0.08210
B         -1.65420        3.58449        0.64202
B         -2.23812        2.13898        0.13862
B         -3.88023        1.79711        0.40730
B         -0.90424       -1.86502       -1.53785
B         -2.50828       -2.16848       -1.09428
B         -3.51094       -0.94705       -0.54304
B         -4.57098        0.35208       -0.18315
B         -5.04499       -1.28651        0.16630
B         -4.07279       -2.46524       -0.36289
B         -2.93381       -3.47786        0.05315
B         -1.28829       -3.26793       -0.59726
B         -1.72350       -4.05087        0.71131
B          1.14882       -2.97838        1.07049
B         -0.21988       -3.60122        0.73917
B          1.75990       -1.47611       -0.36906
B          2.23325       -1.86982        1.29868
B          3.33260       -1.18613        0.03812
B          0.32338       -2.54804       -0.48228
B          2.03695        1.64070       -1.10451
B         -2.93336        0.69381       -0.54182
B          0.70043       -1.37526       -1.71055
B         -3.23810        3.27381        1.01952
B          5.83260        0.32134        0.01627
B          4.83971       -0.92898        0.65695
B          3.66617       -1.29806        1.80401
B          4.98680       -0.70684        2.26876
B          6.04473       -0.02149        1.45270
B         -1.80747       -0.60228       -0.82315
B          0.56510       -1.44859        0.91990
B          0.37013        1.25350       -0.89764
B         -4.65717        2.81068        1.34460
B         -5.38329        1.44145        1.07848
B         -5.70159       -0.07524        0.85109
B         -0.05024       -0.45386       -0.29814
