45
isomer_1173.log	Energy: -113456.5281090
B         -2.56014        1.65731        0.63418
B         -2.56195        3.38424        0.06105
B         -1.21455        4.15259       -0.01394
B          0.25944        3.44959        0.68283
B         -1.20063        0.93640        1.01149
B          1.73489        0.93169        0.97018
B          1.63116        4.16676       -0.18758
B         -3.91916        0.90454        0.17180
B          1.69375        2.58082        0.47266
B         -3.81994        2.50188       -0.19159
B          0.20199        4.69982       -0.31392
B          3.00353        3.33718       -0.25656
B          3.07932        1.76112        0.23729
B          4.34765        0.80302       -0.39708
B          0.28466       -1.70942        1.42229
B          1.42539       -2.40235        0.02433
B          3.01255       -1.71369        0.12565
B          4.46058       -0.85300       -0.11214
B          4.22778       -2.49731       -0.74612
B          2.89598       -3.28396       -0.27372
B          1.58435       -4.13913        0.04061
B          0.25300       -3.32025        0.95741
B          0.21333       -4.73319        0.14547
B         -2.50290       -3.33285       -0.04735
B         -1.19641       -4.13827        0.21029
B         -2.54334       -1.63278        0.38016
B         -3.80831       -2.47814       -0.29279
B         -3.87125       -0.86653        0.09080
B         -1.05571       -2.42078        0.22199
B         -1.20927        2.57733        0.70570
B          3.14641        0.00791        0.50079
B         -1.18896       -0.71580        0.64702
B          4.32288        2.47881       -0.75453
B         -5.12402        1.67314       -0.73689
B         -5.14466        0.01323       -0.44284
B         -5.12164       -1.63515       -0.84402
B         -6.15258       -0.72617       -1.51598
B         -6.16586        0.77193       -1.47033
B          1.57986       -0.73832        0.49641
B          0.23548        0.00930        1.26476
B          0.31264        1.81918        1.20787
B          5.41910        1.55381       -1.26983
B          5.57166       -0.02476       -1.26330
B          5.32237       -1.54952       -1.25946
B          0.14149       -1.26023       -0.29305
