45
isomer_1174.log	Energy: -113418.9016861
B         -2.49869        1.73338        0.24963
B         -2.37159        3.33839       -0.31239
B         -0.92298        4.12789       -0.34234
B          0.41391        3.30168        0.29081
B         -1.17881        0.78629        0.66226
B          1.69024        0.70011        1.10976
B          1.89573        4.07186       -0.11297
B         -3.90755        0.99163        0.03592
B          1.86490        2.44495        0.59814
B         -3.78992        2.58194       -0.39650
B          0.50828        4.72086       -0.39329
B          3.22340        3.17986        0.03557
B          3.22077        1.54343        0.56136
B          4.55433        0.68040        0.02268
B          0.21330       -1.76304        0.93119
B          1.53107       -2.58707        0.18566
B          2.95716       -1.76054        0.04730
B          4.44355       -1.01497       -0.12524
B          4.19274       -2.54918       -0.88829
B          2.82166       -3.37562       -0.47463
B          1.43885       -4.18014       -0.39273
B          0.11049       -3.41456        0.56044
B         -0.01892       -4.68708       -0.43374
B         -2.70864       -3.17979        0.05147
B         -1.35938       -4.08553       -0.06667
B         -2.68467       -1.58512        0.73038
B         -3.97650       -2.27766       -0.10099
B         -4.00834       -0.69671        0.29815
B         -1.32056       -2.50918        0.66598
B         -1.09979        2.54564        0.36777
B          3.17120       -0.12702        0.62488
B         -1.22033       -0.78732        1.03659
B          4.55875        2.36796       -0.37421
B         -5.17937        1.80083       -0.77245
B         -5.32454        0.20737       -0.13155
B         -5.36183       -1.44905       -0.46927
B         -6.42601       -0.58588       -1.10742
B         -6.29405        0.89326       -1.28952
B          1.49713       -0.82225        0.20192
B          0.27387       -0.10101        1.62308
B          0.33658        1.68497        0.78249
B          5.57777        1.43321       -0.96886
B          5.63463       -0.10725       -1.10609
B          5.31282       -1.63398       -1.31227
B          0.20936        0.14399       -0.10204
