45
isomer_1175.log	Energy: -113434.6896104
B         -2.66925        1.57999        0.35936
B         -2.59636        3.26294       -0.07991
B         -1.21670        4.10285       -0.17781
B          0.24136        3.26346        0.19549
B         -1.21151        0.69359        0.59407
B          1.69149        0.75693        1.08171
B          1.62305        4.18777       -0.11542
B         -4.10158        0.87362        0.41111
B          1.68446        2.49294        0.51695
B         -3.99578        2.41839       -0.25169
B          0.20729        4.77222       -0.26631
B          3.00931        3.30116       -0.11336
B          3.12065        1.75567        0.40551
B          4.40299        0.83430       -0.26234
B          0.35506       -1.73462        0.93803
B          1.70111       -2.50573        0.27481
B          3.07160       -1.69221       -0.06169
B          4.53981       -0.82379       -0.01435
B          4.42378       -2.46868       -0.70982
B          3.05150       -3.30200       -0.37298
B          1.64196       -4.14537       -0.34676
B          0.31022       -3.37813        0.49422
B          0.22861       -4.72053       -0.36703
B         -2.51765       -3.23940        0.05876
B         -1.16471       -4.11729       -0.04497
B         -2.60231       -1.63308        0.67711
B         -3.87659       -2.36387       -0.14823
B         -4.01884       -0.80112        0.41913
B         -1.21060       -2.55890        0.68154
B         -1.27554        2.45381        0.32960
B          3.13095       -0.00772        0.47061
B         -1.12985       -0.83998        1.03570
B          4.42524        2.53247       -0.45561
B         -5.28843        1.67115       -0.69035
B         -5.31168       -0.00640       -0.33805
B         -5.15022       -1.65770       -0.68034
B         -6.30198       -0.76917       -1.33351
B         -6.39135        0.71780       -1.29606
B          1.56577       -0.74910        0.09458
B          0.17689        0.04102       -0.15646
B          0.25346        1.63845        0.62450
B          5.58909        1.64551       -0.90411
B          5.74373        0.07780       -0.98032
B          5.51497       -1.48151       -1.07510
B          0.32659       -0.07749        1.57980
