45
isomer_1176.log	Energy: -113433.5756161
B         -2.61049       -1.86538       -0.73521
B         -2.09254       -3.21372       -0.03254
B         -0.78465       -4.03724       -0.00631
B          0.58331       -3.25977       -0.53474
B         -1.73615       -0.90143       -1.79868
B          1.90342       -0.77072       -0.89835
B          1.97139       -4.03375        0.26081
B         -3.87417       -1.00926        0.07594
B          2.09751       -2.50129       -0.64458
B         -3.50512       -2.55260        0.52777
B          0.57618       -4.64959        0.27054
B          3.28786       -3.12543        0.33419
B          3.34044       -1.55743       -0.15940
B          4.60312       -0.56578        0.33357
B          0.20255        1.46610       -0.98043
B          1.55993        2.46695       -0.52674
B          3.02914        1.84446       -0.15466
B          4.49521        1.10078        0.34607
B          4.15192        2.73918        0.79971
B          2.80089        3.39998        0.23748
B          1.37120        4.11647        0.06625
B          0.05226        3.20094       -0.55205
B         -0.05781        4.67850        0.03867
B         -2.73614        3.16002       -0.13284
B         -1.40322        4.00096       -0.17644
B         -2.73794        1.53029       -0.60903
B         -3.99209        2.38819        0.26185
B         -4.14084        0.68896       -0.22228
B         -1.32057        2.27081       -0.77782
B         -0.92541       -2.30883       -0.87823
B          3.26279        0.17044       -0.45309
B         -1.31628        0.67906       -1.23566
B          4.56214       -2.18460        0.87003
B         -4.62207       -1.81812        1.35161
B         -5.09495       -0.18221        0.85955
B         -5.13683        1.52642        0.96674
B         -5.84128        0.60828        2.02472
B         -5.54319       -0.86580        2.23286
B          1.68278        0.83563       -0.80559
B         -2.96108       -0.12321       -1.03272
B          0.75255       -1.82152       -1.31179
B          5.50446       -1.18259        1.48170
B          5.58115        0.39873        1.48516
B          5.28237        1.89971        1.45489
B         -0.22176       -0.64060       -1.62095
