45
isomer_1178.log	Energy: -113424.3410706
B          2.47781       -1.79053        0.68495
B          2.07474       -2.92589       -0.50804
B          0.66946       -3.46153       -0.87585
B         -0.59809       -2.90969        0.01125
B          1.25891       -0.89208        1.21739
B         -1.81525       -0.74247        1.05376
B         -2.06895       -3.78800       -0.44042
B          3.90920       -1.04153        0.34368
B         -2.02262       -2.46365        0.76708
B          3.59122       -2.40762       -0.45879
B         -0.76709       -4.09926       -1.07028
B         -3.43153       -3.10642        0.08614
B         -3.28879       -1.51540        0.46937
B         -4.56843       -0.51135       -0.04115
B         -0.08015        1.61920        0.64190
B         -1.44109        2.49798        0.20995
B         -2.93723        1.86427        0.13350
B         -4.45970        1.17308        0.12585
B         -4.17429        2.70513       -0.66942
B         -2.72584        3.42902       -0.39903
B         -1.31099        4.11839       -0.50969
B          0.04808        3.24627        0.15462
B          0.17134        4.61031       -0.59225
B          2.87238        3.09574        0.06594
B          1.54965        3.93581       -0.20890
B          2.78127        1.39173        0.73296
B          4.13886        2.23053        0.10702
B          4.18707        0.64259        0.56631
B          1.46230        2.33940        0.53666
B          0.65202       -1.60874       -0.39867
B         -3.15438        0.20646        0.66303
B          1.30165        0.72743        1.07953
B         -4.76369       -2.21217       -0.20723
B          5.04719       -1.84232       -0.74713
B          5.32713       -0.30206       -0.08301
B          5.46638        1.34780       -0.31508
B          6.41987        0.42476       -1.08815
B          6.22197       -1.02808       -1.28299
B         -1.53094        0.76120        0.30348
B          1.01148       -2.68338        0.94286
B         -0.41642       -1.76093        1.24368
B         -5.84364       -1.21127       -0.67214
B         -5.80171        0.34059       -0.83655
B         -5.33015        1.80039       -1.05022
B         -0.10901       -0.20373        0.31409
