45
isomer_1179.log	Energy: -112854.0360846
B          2.62720       -1.71074        0.35201
B          2.60280       -3.34642       -0.03870
B          1.20569       -4.17351       -0.27940
B         -0.24411       -3.35437        0.27259
B          1.19854       -0.86456        0.65686
B         -1.70839       -0.83232        0.76449
B         -1.63568       -4.11987       -0.40492
B          4.04659       -0.81658        0.28383
B         -1.64466       -2.44994        0.19142
B          3.98834       -2.49098       -0.18407
B         -0.22131       -4.75478       -0.54839
B         -3.06204       -3.26505       -0.40922
B         -3.09715       -1.65392        0.15869
B         -4.55388       -0.82049       -0.32102
B         -0.29869        1.76185        0.83039
B         -1.68402        2.44411        0.22520
B         -3.12077        1.63354        0.18483
B         -4.55505        0.79950       -0.30431
B         -4.42881        2.37242       -0.55536
B         -3.10689        3.25342       -0.36558
B         -1.69973        4.11957       -0.35386
B         -0.29440        3.36437        0.31640
B         -0.29544        4.77412       -0.48812
B          2.56159        3.39609        0.00340
B          1.14398        4.20760       -0.22622
B          2.61292        1.75666        0.37826
B          3.97353        2.55756       -0.15585
B          4.04230        0.89793        0.29255
B          1.18328        2.59104        0.53788
B          1.21490       -2.56466        0.50407
B         -3.19297       -0.09812        0.56427
B          1.19769        0.88459        0.67618
B         -4.40865       -2.39746       -0.58996
B          5.28109       -1.67623       -0.68603
B          5.26964       -0.03591       -0.44066
B          5.26080        1.76071       -0.66093
B          6.39645        0.81940       -1.26389
B          6.42207       -0.70102       -1.28244
B         -1.72333        0.83422        0.77487
B          0.51182       -0.50088        2.83853
B         -0.26484       -1.75188        0.80635
B         -5.84324       -1.62854       -0.77217
B         -6.03047        0.02954       -0.81627
B         -5.84914        1.68832       -0.80862
B          0.22245        0.06169        0.34295
