45
isomer_0118.log	Energy: -113478.6830694
B         -2.52982        1.65083        0.57225
B         -2.49833        3.31158       -0.04895
B         -1.12605        4.09462       -0.26989
B          0.31068        3.38719        0.35682
B         -1.16151        0.90089        1.02435
B          1.77750        0.90163        0.93939
B          1.69033        4.14719       -0.41892
B         -3.94363        0.91817        0.29074
B          1.75291        2.55746        0.43208
B         -3.84065        2.50002       -0.10039
B          0.28263        4.69296       -0.57206
B          3.06339        3.29736       -0.36351
B          3.14907        1.75820        0.21962
B          4.49436        0.79892       -0.21943
B          0.18485       -1.58734        0.38690
B          1.66449       -2.46902        0.36481
B          3.12030       -1.69556        0.40077
B          4.58342       -0.83684        0.16732
B          4.39738       -2.45959       -0.43577
B          3.03285       -3.30444       -0.05510
B          1.65994       -4.12688       -0.12131
B          0.14432       -3.31215        0.57546
B          0.30976       -4.54472       -0.53711
B         -2.47702       -3.12693       -0.42764
B         -1.11360       -3.88559       -0.48439
B         -2.56875       -1.70250        0.61006
B         -3.83671       -2.31075       -0.39311
B         -3.94376       -0.82307        0.24865
B         -1.31522       -2.73378        1.06004
B         -1.17264        2.60315        0.65060
B          3.25755        0.06095        0.67051
B         -1.27522       -0.73649        0.74833
B          4.41948        2.46040       -0.73389
B         -5.22947        1.72078       -0.49892
B         -5.29288        0.07012       -0.09454
B         -5.22111       -1.52510       -0.65751
B         -6.32296       -0.60579       -1.21541
B         -6.32573        0.86923       -1.13136
B          1.67272       -0.74886        0.71230
B          0.24819        0.05591        1.04850
B          0.34417        1.86447        1.04474
B          5.56103        1.52738       -1.14042
B          5.73220       -0.01809       -1.05429
B          5.45490       -1.53823       -0.99579
B         -1.11337       -2.05769       -0.55451
