45
isomer_1180.log	Energy: -111873.2822728
B          2.62812       -1.57589        0.34145
B          2.63817       -3.20335       -0.08150
B          1.24069       -4.04430       -0.33968
B         -0.22361       -3.24501        0.23878
B          1.15926       -0.71063        0.67715
B         -1.71442       -0.77836        0.77473
B         -1.60738       -4.02951       -0.46414
B          4.07545       -0.68197        0.28426
B         -1.61806       -2.36632        0.17180
B          4.03461       -2.36201       -0.21654
B         -0.17511       -4.67134       -0.62740
B         -3.04972       -3.20042       -0.44980
B         -3.09355       -1.59484        0.15917
B         -4.56561       -0.78764       -0.30938
B         -0.31165        1.79300        0.90184
B         -1.70574        2.48692        0.30039
B         -3.15243        1.66443        0.24552
B         -4.59485        0.83056       -0.26651
B         -4.45660        2.39693       -0.47112
B         -3.16717        3.30053       -0.27756
B         -1.75570        4.18074       -0.24660
B         -0.34385        3.41059        0.41512
B         -0.34769        4.88159       -0.37430
B          2.51726        3.48926        0.09582
B          1.09009        4.29171       -0.11881
B          2.56636        1.84240        0.43201
B          3.94303        2.70721       -0.08223
B          4.04497        1.00558        0.32897
B          1.12238        2.63597        0.62263
B          1.21390       -2.43004        0.48840
B         -3.20259       -0.07714        0.59655
B          1.13002        0.90813        0.72003
B         -4.37111       -2.33497       -0.59649
B          5.34169       -1.52030       -0.70483
B          5.31048        0.10380       -0.42778
B          5.27917        1.94026       -0.61314
B          6.45863        1.02302       -1.24547
B          6.48667       -0.52890       -1.28659
B         -1.74415        0.86682        0.81832
B          1.11758       -2.93185        2.04656
B         -0.24935       -1.65535        0.81048
B         -5.89332       -1.64606       -0.78524
B         -6.11959        0.06447       -0.80401
B         -5.95311        1.79730       -0.76464
B          0.01785       -1.24503        0.08379
