45
isomer_1181.log	Energy: -113391.0000731
B         -2.46931        1.87835        0.70618
B         -2.44722        3.52721        0.20248
B         -1.06339        4.31374        0.22977
B          0.33128        3.48584        0.69241
B         -1.16605        1.03297        1.24555
B          1.67896        0.88690        0.87478
B          1.71927        4.18080       -0.14290
B         -3.44253        1.01149       -0.21411
B          1.72436        2.54362        0.48072
B         -3.62607        2.67759       -0.22759
B          0.31683        4.85173       -0.12966
B          3.03356        3.30730       -0.27112
B          3.12297        1.71373        0.25120
B          4.42045        0.81248       -0.32016
B          0.21214       -1.81444        1.71388
B          1.44926       -2.35408        0.56240
B          2.86885       -1.59072        0.32866
B          4.19084       -0.84537       -0.32815
B          4.01814       -2.45870       -0.74959
B          2.70421       -3.23755       -0.13414
B          1.42197       -4.04272       -0.01686
B          0.07988       -3.33183        1.00118
B         -0.06259       -4.57753       -0.08042
B         -2.55730       -3.09803        0.34082
B         -1.47906       -4.26340        0.36422
B         -1.97160       -1.40802       -0.02168
B         -3.58843       -2.13960       -0.45043
B         -3.23208       -0.54762       -0.70025
B         -0.94510       -2.92410       -0.45800
B         -1.08585        2.64563        1.04008
B          3.10776        0.04019        0.57354
B         -0.84936       -0.54200        1.12831
B          4.25256        2.43315       -0.88031
B         -4.96822        1.77266       -0.63980
B         -4.75605        0.07791       -0.57719
B         -4.66007       -1.43229       -1.31583
B         -5.85154       -0.47617       -1.66123
B         -6.07816        0.91755       -1.17098
B          1.10558       -0.65045        0.81974
B         -1.35151       -2.30934        1.31639
B          0.35739        1.77853        1.14697
B          5.20858        1.43304       -1.55731
B          5.35812       -0.10269       -1.49398
B          5.10940       -1.63674       -1.38370
B         -0.14086       -1.53905       -0.09391
