45
isomer_1183.log	Energy: -113675.8855662
B         -2.56240        1.73094        0.52957
B         -2.51200        3.30388       -0.03815
B         -1.15495        4.14917       -0.10941
B          0.27024        3.40300        0.53957
B         -1.16942        0.85081        1.06778
B          1.71852        0.84291        0.78974
B          1.64339        4.16941       -0.25790
B         -3.98355        0.84643        0.22394
B          1.72530        2.55080        0.43184
B         -3.86860        2.48572       -0.27705
B          0.22161        4.74799       -0.35277
B          3.00960        3.33952       -0.27790
B          3.12959        1.73289        0.22210
B          4.54646        0.89263       -0.14697
B          0.36841       -1.82563        1.11661
B          1.80107       -2.53250        0.48757
B          3.17326       -1.68133        0.26049
B          4.53199       -0.79902       -0.23680
B          4.40619       -2.44511       -0.74927
B          3.09104       -3.28126       -0.26592
B          1.74680       -4.14457       -0.24643
B          0.34980       -3.38492        0.51389
B          0.34006       -4.74592       -0.35258
B         -2.42868       -3.33400       -0.03973
B         -1.04898       -4.15679       -0.12324
B         -2.50960       -1.75912        0.48902
B         -3.81052       -2.53648       -0.29186
B         -3.95660       -0.90939        0.21580
B         -1.12016       -2.58976        0.76607
B         -1.18507        2.57784        0.78790
B          3.29345        0.01545        0.60883
B         -1.13051       -0.84873        1.04337
B          4.32722        2.49866       -0.77026
B         -5.10349        1.65282       -0.84623
B         -5.19582       -0.04340       -0.52258
B         -5.06143       -1.73766       -0.86381
B         -6.08505       -0.81280       -1.61231
B         -6.10428        0.70797       -1.60592
B          1.78504       -0.83072        0.91020
B         -2.60960       -0.01535        0.74594
B          0.31340        1.83078        1.08797
B          5.37450        1.56916       -1.33798
B          5.61940        0.03250       -1.30547
B          5.47170       -1.51937       -1.30245
B          0.34266        0.00253        1.09477
