45
isomer_1184.log	Energy: -113458.7543425
B         -2.54895        1.66153        0.63392
B         -2.53808        3.38256        0.05419
B         -1.18954        4.14671       -0.02077
B          0.27379        3.43673        0.65309
B         -1.20244        0.93714        1.06908
B          1.74889        0.92436        0.98645
B          1.64721        4.15870       -0.19962
B         -3.90561        0.91278        0.15260
B          1.70961        2.56968        0.47622
B         -3.79848        2.51442       -0.20175
B          0.22351        4.70767       -0.31583
B          3.01526        3.32242       -0.26861
B          3.08757        1.74642        0.22388
B          4.36009        0.78809       -0.39772
B          0.28921       -1.73509        1.46026
B          1.40556       -2.41298        0.04522
B          2.99994       -1.71939        0.10915
B          4.46176       -0.86773       -0.10961
B          4.20660       -2.50188       -0.76565
B          2.87197       -3.28595       -0.30381
B          1.55523       -4.14062       -0.00757
B          0.23281       -3.33146        0.94275
B          0.18098       -4.71736        0.07866
B         -2.52309       -3.31394       -0.04860
B         -1.22594       -4.12615        0.18984
B         -2.56725       -1.60862        0.43766
B         -3.80396       -2.45280       -0.31290
B         -3.89268       -0.85337        0.10186
B         -1.08583       -2.40874        0.26069
B         -1.20142        2.57731        0.74608
B          3.15107       -0.00009        0.50164
B          0.24763        0.00380        1.24472
B          4.33426        2.46509       -0.76486
B         -5.09298        1.69009       -0.77170
B         -5.15245        0.03604       -0.44905
B         -5.11801       -1.60924       -0.86978
B         -6.13228       -0.69962       -1.55536
B         -6.12704        0.79705       -1.52051
B          1.58220       -0.75447        0.52121
B         -1.21655       -0.74020        0.83367
B          0.32584        1.81910        1.21074
B          5.42765        1.53694       -1.27914
B          5.57235       -0.04007       -1.27291
B          5.31166       -1.56227       -1.26612
B          0.09992       -1.25261       -0.23170
