45
isomer_1185.log	Energy: -112814.7463939
B          2.53640        1.75513       -0.46841
B          2.48013        3.42562       -0.04587
B          1.07947        4.20752        0.15748
B         -0.33924        3.39685       -0.39153
B          1.18296        0.94438       -0.84950
B         -1.77701        0.86007       -0.88032
B         -1.73332        4.13580        0.30643
B          3.92450        0.92068       -0.36877
B         -1.71574        2.48489       -0.31099
B          3.82560        2.59204        0.10975
B         -0.33550        4.74636        0.43798
B         -3.10862        3.27841        0.31563
B         -3.15895        1.67519       -0.24252
B         -4.58810        0.82165        0.25814
B         -0.49452       -1.67662       -0.95020
B         -1.77422       -2.43958       -0.27422
B         -3.16745       -1.64535       -0.23547
B         -4.57288       -0.80583        0.25497
B         -4.47505       -2.40600        0.55613
B         -3.08881       -3.25808        0.34081
B         -1.67824       -4.10911        0.32810
B         -0.27995       -3.41976       -0.34282
B         -0.22470       -4.76114        0.42036
B          2.67597       -3.45560       -0.08010
B          1.28438       -4.30856        0.14804
B          2.65676       -1.65244       -0.39285
B          3.96435       -2.49104        0.07009
B          3.97515       -0.80698       -0.35986
B          1.28071       -2.72161       -0.64146
B          1.12533        2.61868       -0.63125
B         -3.25911        0.08868       -0.63567
B          1.22933       -0.49215       -0.78956
B         -4.49638        2.43286        0.54551
B          5.10360        1.82083        0.60272
B          5.13768        0.15475        0.35668
B          5.19734       -1.59231        0.57067
B          6.25274       -0.63505        1.15390
B          6.25056        0.89472        1.19458
B         -1.80388       -0.82515       -0.88007
B          1.97328        0.33104        0.42984
B         -0.31876        1.80783       -0.95448
B         -5.81313        1.57661        0.73665
B         -5.97614       -0.01373        0.78398
B         -5.78011       -1.60047        0.78636
B          0.82356       -1.85401       -0.13891
