45
isomer_1187.log	Energy: -112531.1193880
B          2.60268       -1.58705        0.40967
B          2.61624       -3.22117        0.01335
B          1.22078       -4.06762       -0.23766
B         -0.24697       -3.26050        0.32079
B          1.13145       -0.71792        0.72430
B         -1.74260       -0.78694        0.80945
B         -1.62668       -4.05773       -0.37575
B          4.04944       -0.69272        0.34473
B         -1.64191       -2.38441        0.23294
B          4.01252       -2.38074       -0.12881
B         -0.19306       -4.70070       -0.52180
B         -3.06984       -3.22997       -0.38172
B         -3.11804       -1.61473        0.20079
B         -4.58862       -0.81675       -0.28778
B         -0.34283        1.78756        0.90124
B         -1.73471        2.47018        0.28201
B         -3.18036        1.64546        0.23374
B         -4.61956        0.80191       -0.27142
B         -4.48181        2.36487       -0.50087
B         -3.19414        3.27280       -0.31599
B         -1.78366        4.15482       -0.29274
B         -0.37423        3.39698        0.38808
B         -0.37572        4.85492       -0.42521
B          2.48827        3.47331        0.08102
B          1.06139        4.27072       -0.15338
B          2.53732        1.83219        0.44423
B          3.91560        2.68990       -0.07756
B          4.01717        0.99530        0.36180
B          1.09172        2.62731        0.61508
B          1.18858       -2.44012        0.56386
B         -3.23056       -0.09021        0.61286
B          1.10050        0.90129        0.74067
B         -4.39133       -2.36836       -0.54872
B          5.32111       -1.54579       -0.62459
B          5.28709        0.08258       -0.37419
B          5.25494        1.91574       -0.58960
B          6.43823        0.98952       -1.20134
B          6.46790       -0.56285       -1.21703
B         -1.77405        0.85870        0.82608
B          1.50232       -1.39209       -0.87270
B         -0.27690       -1.66176        0.86638
B         -5.91327       -1.68415       -0.75583
B         -6.14104        0.02562       -0.80353
B         -5.97636        1.75903       -0.79163
B          0.71298       -1.90646        1.77677
