45
isomer_1188.log	Energy: -113511.4729717
B         -2.78481        2.43253        0.77041
B         -2.53400        3.87176       -0.14444
B         -1.08615        4.58599       -0.08372
B          0.23364        3.61170        0.58891
B         -1.62062        1.32235        0.89725
B          1.34664        0.81405        0.70200
B          1.73125        4.27454       -0.00948
B         -3.19507        0.97527       -0.03695
B          1.59068        2.58497        0.64622
B         -3.52696        2.75378       -0.64975
B          0.39254        4.99914       -0.20640
B          2.97069        3.31194        0.02220
B          2.87731        1.65314        0.30672
B          4.27566        0.74523        0.08063
B         -0.67060       -1.32662        1.17911
B          1.59783       -2.73757        0.32943
B          2.59666       -1.66321       -0.29341
B          4.05575       -0.80410       -0.52879
B          4.02228       -2.39929       -1.13126
B          2.69879       -3.24359       -0.78097
B          1.42666       -4.25319       -0.59264
B          0.34472       -3.83503        0.67190
B          0.10183       -4.96616       -0.41787
B         -2.48961       -3.56583        0.49522
B         -1.21503       -4.43016        0.19107
B         -2.26547       -1.88842        0.73412
B         -3.64102       -2.57685        0.06734
B         -3.41816       -0.86478        0.19978
B         -1.06637       -3.00331        1.23547
B         -1.28279        2.95987        0.52097
B          2.77300       -0.08912        0.38101
B         -1.83027       -0.25781        0.49228
B          4.29162        2.42934       -0.31832
B         -4.31115        1.58877       -1.32926
B         -4.52608        0.07181       -0.60207
B         -4.72449       -1.65589       -0.68698
B         -5.55985       -0.82705       -1.58384
B         -5.25881        0.58498       -1.98699
B          1.26762       -0.95260        0.84469
B         -0.23969        0.22865        0.89136
B          0.07053        1.95741        0.90190
B          5.34793        1.49634       -0.85871
B          5.48914       -0.02102       -1.06894
B          5.23396       -1.51885       -1.34114
B          0.51026       -2.37309        1.50193
