45
isomer_1189.log	Energy: -112030.9394888
B          2.65728       -1.68928        0.35802
B          2.64717       -3.32180       -0.04497
B          1.23984       -4.14543       -0.30539
B         -0.21760       -3.31786        0.25014
B          1.19838       -0.79867        0.66998
B         -1.67674       -0.82335        0.74263
B         -1.60650       -4.09072       -0.45553
B          4.11801       -0.81729        0.30291
B         -1.59838       -2.41985        0.15998
B          4.05694       -2.50260       -0.17773
B         -0.18242       -4.75530       -0.59813
B         -3.03660       -3.24061       -0.46422
B         -3.06223       -1.62719        0.12473
B         -4.51812       -0.80448       -0.36679
B         -0.23758        1.72869        0.85097
B         -1.61601        2.43536        0.22864
B         -3.07406        1.63341        0.17084
B         -4.52400        0.81439       -0.34390
B         -4.36101        2.37594       -0.56633
B         -3.06021        3.26298       -0.37224
B         -1.63632        4.12287       -0.33937
B         -0.24177        3.34046        0.34431
B         -0.21712        4.80153       -0.46297
B          2.62287        3.37354        0.04973
B          1.20956        4.19397       -0.18745
B          2.64486        1.73040        0.40638
B          4.03853        2.56868       -0.10601
B          4.11189        0.87094        0.32679
B          1.21106        2.54719        0.57437
B          1.22946       -2.52088        0.50269
B         -3.15284       -0.10279        0.54260
B          1.19250        0.82075        0.69288
B         -4.34382       -2.35790       -0.63328
B          5.38046       -1.68608       -0.66450
B          5.37064       -0.05841       -0.40755
B          5.36789        1.77588       -0.61554
B          6.53928        0.83386       -1.22605
B          6.54491       -0.71869       -1.24801
B         -1.68271        0.82250        0.76590
B         -0.62085       -1.40373        2.61053
B         -0.22505       -1.72107        0.80218
B         -5.85405       -1.64928       -0.84403
B         -6.05504        0.06401       -0.88566
B         -5.86352        1.79458       -0.86592
B         -0.71696        0.66135        0.70438
