45
isomer_0119.log	Energy: -113523.3601785
B          2.44090       -1.82990        0.64526
B          2.20742       -3.06239       -0.49461
B          0.83716       -3.77898       -0.64624
B         -0.33227       -3.36083        0.63096
B          1.04561       -0.84158        0.80812
B         -1.78890       -0.76560        0.74254
B         -1.96750       -4.06227       -0.18168
B          3.93913       -0.94980        0.31691
B         -1.81111       -2.48728        0.37276
B          3.68937       -2.39789       -0.44825
B         -0.60632       -4.32969       -0.70012
B         -3.26382       -3.20142       -0.08966
B         -3.23043       -1.59337        0.34085
B         -4.62008       -0.65265       -0.00632
B         -0.28812        1.66257        0.74721
B         -1.66181        2.49728        0.24972
B         -3.15503        1.80372        0.20298
B         -4.64235        1.01294        0.17864
B         -4.40525        2.64625       -0.56764
B         -3.01557        3.38108       -0.30325
B         -1.57470        4.14285       -0.42538
B         -0.22328        3.34602        0.25050
B         -0.14037        4.69506       -0.56366
B          2.63699        3.28165        0.05350
B          1.25092        4.08701       -0.20670
B          2.63058        1.68249        0.60271
B          4.00695        2.46543       -0.01482
B          4.03823        0.79738        0.47746
B          1.21964        2.49583        0.53837
B          1.13754       -2.76169        1.12731
B         -3.26175        0.13416        0.66878
B          1.14095        0.81774        0.88262
B         -4.59436       -2.29044       -0.47679
B          5.05703       -1.69961       -0.75282
B          5.33089       -0.08042       -0.17286
B          5.29088        1.63156       -0.43709
B          6.32777        0.71012       -1.16019
B          6.20798       -0.77370       -1.32950
B         -1.66623        0.84071        0.57809
B          2.59008       -0.02888        0.84785
B         -0.39162       -1.62817        0.87644
B         -5.72703       -1.37436       -0.88392
B         -5.84837        0.20314       -0.87680
B         -5.53764        1.69703       -0.97440
B          0.72790       -2.08110       -0.42689
