45
isomer_1190.log	Energy: -113675.8857513
B         -2.50910       -1.76018       -0.48814
B         -2.42746       -3.33514        0.04016
B         -1.04739       -4.15742        0.12329
B          0.35115       -3.38445       -0.51353
B         -1.13004       -0.84867       -1.04158
B          1.78705       -0.83041       -0.91227
B          1.74849       -4.14434        0.24602
B         -3.95622       -0.91068       -0.21593
B          1.80218       -2.53263       -0.48895
B         -3.80984       -2.53734        0.29268
B          0.34199       -4.74589        0.35212
B          3.09224       -3.28045        0.26598
B          3.17329       -1.68023       -0.25982
B          4.53195       -0.79745        0.23823
B          0.31274        1.83082       -1.08684
B          1.72444        2.55160       -0.43072
B          3.12887        1.73350       -0.22067
B          4.54701        0.89437        0.14413
B          4.32638        2.49982        0.77000
B          3.00878        3.34109        0.27807
B          1.64203        4.17005        0.25846
B          0.26874        3.40293       -0.53793
B          0.21949        4.74795        0.35384
B         -2.51405        3.30397        0.03696
B         -1.15713        4.14926        0.10931
B         -2.56325        1.73060       -0.53099
B         -3.86967        2.48503        0.27579
B         -3.98389        0.84525       -0.22450
B         -1.18598        2.57763       -0.78854
B         -1.11928       -2.59001       -0.76472
B          3.29324        0.01603       -0.60901
B         -1.17025        0.85094       -1.06888
B          4.40734       -2.44449        0.74882
B         -5.06077       -1.73894        0.86443
B         -5.19542       -0.04466        0.52255
B         -5.10457        1.65147        0.84505
B         -6.10504        0.70638        1.60509
B         -6.08467       -0.81421        1.61231
B          1.71697        0.84345       -0.78595
B         -2.60952       -0.01602       -0.74652
B          0.36927       -1.82514       -1.11701
B          5.47406       -1.51862        1.30075
B          5.62036        0.03336        1.30401
B          5.37276        1.56935        1.33782
B          0.34270        0.00252       -1.09335
