45
isomer_1191.log	Energy: -113394.0289979
B         -2.49296        1.80609        0.55677
B         -2.38359        3.44139       -0.02104
B         -0.98341        4.13577       -0.21236
B          0.45366        3.44308        0.52009
B         -1.15302        0.97436        1.03011
B          1.86316        0.92449        0.93118
B          1.86405        4.07846       -0.35745
B         -3.90557        1.05439        0.18966
B          1.88608        2.56146        0.39779
B         -3.76863        2.63428       -0.21863
B          0.44021        4.61918       -0.55789
B          3.23532        3.24701       -0.32449
B          3.25138        1.67825        0.21523
B          4.57800        0.69388       -0.22788
B          0.21482       -1.53422        0.89394
B          1.60105       -2.51299        0.44640
B          3.09124       -1.74220        0.26731
B          4.61304       -0.95507        0.08441
B          4.27242       -2.56747       -0.61033
B          2.88824       -3.30974       -0.27133
B          1.42889       -4.00101       -0.32819
B          0.13724       -3.24983        0.58054
B         -0.05016       -4.39088       -0.62139
B         -2.63297       -3.11813       -0.13228
B         -1.51213       -3.93858       -0.84281
B         -2.66757       -1.39537        0.47207
B         -4.01029       -2.21515       -0.18825
B         -3.99879       -0.61712        0.18792
B         -1.34607       -2.30231        0.73833
B         -1.09071        2.66023        0.65355
B          3.31083       -0.02101        0.64380
B         -1.26667       -0.66890        1.03496
B          4.54918        2.35615       -0.74931
B         -5.15628        1.94215       -0.61369
B         -5.32184        0.28371       -0.30596
B         -5.28578       -1.40917       -0.70020
B         -6.32396       -0.43459       -1.35425
B         -6.26211        1.06234       -1.33740
B          1.72245       -0.77027        0.69724
B         -1.31680       -3.98674        0.73747
B          0.43090        1.84144        1.11551
B          5.63925        1.40460       -1.17431
B          5.73697       -0.16974       -1.11867
B          5.38717       -1.66968       -1.12576
B          0.33375        0.13745        0.99959
