45
isomer_1193.log	Energy: -113453.8049099
B         -2.51651       -1.61833       -0.41930
B         -2.41783       -3.24729        0.19569
B         -1.23090       -4.11407        0.80461
B          0.33105       -3.26155       -0.63081
B         -2.54267        0.12462       -0.83810
B          1.79696       -0.74383       -0.83647
B          1.67305       -4.00072        0.20580
B         -3.91474       -0.75611       -0.21149
B          1.78500       -2.43443       -0.66084
B         -3.82318       -2.35727        0.32886
B          0.23708       -4.50470        0.51311
B          3.03517       -3.22832        0.18753
B          3.21980       -1.65488       -0.37079
B          4.65133       -0.81844       -0.05764
B          0.40835        1.75156       -1.02167
B          1.80825        2.53299       -0.42308
B          3.20505        1.73110       -0.19364
B          4.59203        0.83216        0.23960
B          4.45110        2.48116        0.78184
B          3.11271        3.28144        0.36688
B          1.74460        4.13269        0.33158
B          0.37498        3.39438       -0.42751
B          0.34286        4.76037        0.39045
B         -2.47197        3.44766       -0.11321
B         -1.05836        4.20727        0.06718
B         -2.51149        1.84862       -0.55308
B         -3.84704        2.66908        0.14147
B         -3.93897        0.99651       -0.30107
B         -1.08289        2.62730       -0.71881
B         -1.08559       -2.35159       -0.57784
B          3.32098        0.09591       -0.63886
B         -1.08568        0.95120       -1.00085
B          4.38859       -2.39550        0.59316
B         -5.10339       -1.54522        0.83383
B         -5.11894        0.15457        0.52891
B         -5.12784        1.86611        0.64344
B         -6.22530        0.94613        1.34869
B         -6.19990       -0.57507        1.44434
B          1.81293        0.89718       -0.94051
B         -1.06924       -4.04037       -0.75685
B          0.37740       -1.46367       -0.87392
B          5.46781       -1.48254        1.16307
B          5.75199        0.02151        1.18487
B          5.58136        1.55981        1.24295
B         -1.09804       -0.71740       -0.97153
