45
isomer_1197.log	Energy: -113435.8363087
B          2.45581        1.78962       -0.41925
B          2.43050        3.46493        0.04609
B          1.06414        4.23018        0.22252
B         -0.36889        3.42049       -0.31955
B          1.17013        0.94758       -0.99846
B         -1.75778        0.89324       -0.80032
B         -1.75949        4.14602        0.43662
B          3.76048        0.99555        0.03066
B         -1.79827        2.55325       -0.36617
B          3.81261        2.65772        0.10901
B         -0.36273        4.77070        0.53154
B         -3.11625        3.27267        0.39640
B         -3.17083        1.70269       -0.17231
B         -4.58019        0.78138        0.08446
B         -0.30696       -1.66980       -1.31889
B         -1.61050       -2.48511       -0.58305
B         -3.07952       -1.70405       -0.38588
B         -4.49791       -0.88790        0.03299
B         -4.32142       -2.52670        0.52496
B         -2.91132       -3.27272        0.08365
B         -1.48612       -3.96970        0.24186
B          0.02416       -3.24563       -0.38668
B         -0.15346       -4.44876        0.71667
B          2.60890       -3.21116        0.84567
B          1.26777       -4.02083        0.90549
B          2.44618       -1.74234       -0.42526
B          3.72366       -2.20300        0.61588
B          3.70661       -0.72231       -0.05031
B          1.76746       -3.37081       -0.51059
B          1.12632        2.67609       -0.66822
B         -3.27587        0.01032       -0.69180
B          1.27752       -0.64322       -1.02320
B         -4.42272        2.39018        0.78534
B          5.15829        1.84702        0.52375
B          5.15788        0.15524        0.12356
B          5.15786       -1.41869        0.67509
B          6.34610       -0.56323        1.03486
B          6.27898        0.92848        1.04980
B         -1.67757       -0.77696       -0.96191
B         -0.25703        0.08303       -0.94863
B         -0.36437        1.89338       -0.99810
B         -5.47915        1.39874        1.24775
B         -5.66239       -0.14339        1.13977
B         -5.44642       -1.68577        1.05905
B          1.12578       -2.29638       -1.43485
