45
isomer_1198.log	Energy: -112533.1078369
B          2.62342       -1.63871        0.34191
B          2.61892       -3.26769       -0.07522
B          1.21410       -4.09607       -0.33421
B         -0.24397       -3.28066        0.23743
B          1.16207       -0.75815        0.67054
B         -1.71238       -0.79787        0.76056
B         -1.63334       -4.05431       -0.46645
B          4.07945       -0.75897        0.28548
B         -1.62971       -2.38883        0.16354
B          4.02376       -2.44032       -0.20946
B         -0.20690       -4.71048       -0.62355
B         -3.06766       -3.21133       -0.45898
B         -3.09765       -1.60323        0.14416
B         -4.56061       -0.78359       -0.33125
B         -0.28525        1.76031        0.88235
B         -1.67097        2.46545        0.27465
B         -3.12536        1.65674        0.21878
B         -4.57437        0.83497       -0.29420
B         -4.42049        2.39919       -0.50400
B         -3.12293        3.29102       -0.31015
B         -1.70314        4.15771       -0.27849
B         -0.30055        3.37639        0.38980
B         -0.28811        4.84452       -0.40485
B          2.56202        3.42637        0.07800
B          1.14323        4.24174       -0.14336
B          2.59436        1.78032        0.42017
B          3.98067        2.63000       -0.09341
B          4.06510        0.92895        0.32411
B          1.15758        2.58843        0.60404
B          1.20065       -2.47867        0.48806
B         -3.19324       -0.08300        0.57585
B          1.14831        0.86096        0.70760
B         -4.38026       -2.33373       -0.61233
B          5.34019       -1.61298       -0.69718
B          5.32390        0.01232       -0.42599
B          5.31077        1.84832       -0.61795
B          6.48304        0.91752       -1.24381
B          6.49623       -0.63474       -1.27934
B         -1.72637        0.84767        0.79822
B          0.34766       -2.35384        2.21388
B         -0.25593       -1.68879        0.80340
B         -5.89525       -1.63088       -0.80766
B         -6.10498        0.08167       -0.83312
B         -5.92192        1.81295       -0.79946
B          0.24593       -0.15668        0.46189
