45
isomer_0012.log	Energy: -112006.6652463
B         -2.63575       -1.68850       -0.44570
B         -2.61675       -3.32665       -0.06664
B         -1.20468       -4.14785        0.17523
B          0.24657       -3.30591       -0.37489
B         -1.18217       -0.78708       -0.75137
B          1.69266       -0.79815       -0.83765
B          1.64207       -4.08291        0.31300
B         -4.09995       -0.82379       -0.37113
B          1.62389       -2.40330       -0.27801
B         -4.02938       -2.51565        0.08458
B          0.22154       -4.75570        0.45247
B          3.06853       -3.22678        0.32749
B          3.08446       -1.60485       -0.23796
B          4.53910       -0.78305        0.25879
B          0.24205        1.74889       -0.90209
B          1.62033        2.45243       -0.27589
B          3.08208        1.65609       -0.23653
B          4.53791        0.83599        0.25949
B          4.36926        2.39341        0.50544
B          3.06377        3.27750        0.33033
B          1.63606        4.13155        0.31659
B          0.24170        3.35311       -0.37199
B          0.21455        4.80214        0.45664
B         -2.62165        3.36939       -0.06372
B         -1.21079        4.19244        0.17887
B         -2.63825        1.73154       -0.44421
B         -4.03309        2.55618        0.08679
B         -4.10118        0.86462       -0.37039
B         -1.20877        2.55694       -0.60688
B         -1.20506       -2.51166       -0.60909
B          3.16657       -0.07415       -0.63395
B         -1.18335        0.83252       -0.75066
B          4.37273       -2.34093        0.50338
B         -5.35410       -1.71209        0.58932
B         -5.35248       -0.08082        0.35611
B         -5.35663        1.75025        0.59083
B         -6.52109        0.79432        1.19294
B         -6.51996       -0.75840        1.19226
B          1.69145        0.84788       -0.83693
B         -0.12879        0.82736       -0.21583
B          0.24458       -1.70123       -0.90360
B          5.88086       -1.62888        0.71747
B          6.07468        0.08448        0.78317
B          5.87564        1.81431        0.78957
B          0.77082       -1.81504        0.12434
