45
isomer_0120.log	Energy: -113207.0760017
B          2.45066        1.65499       -0.51960
B          2.41570        3.33888       -0.09015
B          1.07652        4.12911        0.13688
B         -0.36348        3.33715       -0.38320
B          1.07600        0.86180       -0.84038
B         -1.76503        0.83066       -0.86892
B         -1.73109        4.08683        0.32585
B          3.82204        0.86802       -0.43908
B         -1.74190        2.44352       -0.28054
B          3.72040        2.53159        0.01945
B         -0.32735        4.66546        0.42695
B         -3.10290        3.23056        0.34277
B         -3.15107        1.64586       -0.21717
B         -4.57867        0.77403        0.26646
B         -0.37413       -1.65460       -0.99743
B         -1.72202       -2.41799       -0.33754
B         -3.13966       -1.64408       -0.26699
B         -4.54904       -0.83248        0.23443
B         -4.46122       -2.42998        0.53385
B         -3.04915       -3.23266        0.28399
B         -1.66525       -4.05197        0.25914
B         -0.31778       -3.27516       -0.45329
B         -0.26848       -4.60184        0.35577
B          2.48728       -3.26572       -0.13656
B          1.13562       -4.03024        0.07306
B          2.49818       -1.60810       -0.57855
B          3.82998       -2.39851        0.02548
B          3.86612       -0.77279       -0.45879
B          1.09585       -2.46155       -0.69924
B          1.07738        2.54396       -0.65082
B         -3.24601        0.05082       -0.62737
B          1.02242       -0.71500       -0.88770
B         -4.52010        2.39362        0.58225
B          5.02384        1.76057        0.51666
B          5.03640        0.12493        0.26582
B          5.07442       -1.57538        0.51131
B          6.10684       -0.68240        1.09666
B          6.12793        0.84208        1.12336
B         -1.76371       -0.82693       -0.89418
B          2.43373       -1.10410        1.79691
B         -0.36425        1.72760       -0.93538
B         -5.76964        1.49778        0.75282
B         -5.92086       -0.06750        0.78101
B         -5.71588       -1.58188        0.76582
B          2.23135       -0.10895        0.08618
