45
isomer_1200.log	Energy: -112915.3471570
B         -2.51894        1.75678        0.44861
B         -2.45286        3.41619        0.04446
B         -1.03383        4.20672       -0.10801
B          0.35020        3.39809        0.45550
B         -1.05630        0.88469        0.77807
B          1.70252        0.81741        0.84901
B          1.77139        4.16292       -0.22292
B         -3.97722        0.97909        0.30436
B          1.71106        2.47949        0.36020
B         -3.84048        2.59812       -0.17207
B          0.36545        4.78297       -0.35400
B          3.10578        3.28263       -0.23559
B          3.13788        1.68951        0.23768
B          4.50790        0.86444       -0.25473
B          0.32357       -1.68824        1.02243
B          1.76114       -2.43076        0.15821
B          3.13413       -1.64192        0.12013
B          4.46129       -0.76060       -0.32195
B          4.46354       -2.39038       -0.78383
B          3.03479       -3.22759       -0.56165
B          1.67401       -4.04086       -0.54881
B          0.44479       -3.30896        0.23943
B          0.08323       -4.56395       -0.60237
B         -2.54952       -3.16287       -0.11582
B         -1.28423       -4.03023       -0.34748
B         -2.69115       -1.35787        0.37361
B         -3.94601       -2.26338       -0.26675
B         -4.02832       -0.64258        0.26606
B         -1.41065       -2.16789        0.58898
B         -1.14351        2.58456        0.62547
B          3.21903        0.05527        0.56090
B         -1.16622       -0.63082        0.66855
B          4.49052        2.55066       -0.51729
B         -5.13622        1.91693       -0.74022
B         -5.18727        0.24058       -0.53897
B         -5.21155       -1.45143       -0.82252
B         -6.25916       -0.48321       -1.48880
B         -6.26728        1.02967       -1.42804
B          1.72068       -0.87608        0.82842
B         -1.17411       -1.31845        2.05550
B          0.37232        1.72825        0.93386
B          5.74398        1.66740       -0.81912
B          5.88346        0.11673       -0.92110
B          5.67171       -1.48668       -1.02117
B         -0.79956       -3.28434        1.27378
