45
isomer_1201.log	Energy: -112995.7320293
B         -2.60021        1.64551        0.55142
B         -2.62478        3.36541        0.06117
B         -1.24232        4.11966       -0.09110
B          0.20247        3.36289        0.43804
B         -1.31651        0.83664        1.09441
B          1.67367        0.83010        0.89126
B          1.56342        4.12850       -0.30602
B         -3.94581        0.82803        0.32010
B          1.63080        2.48851        0.32952
B         -3.91829        2.46652       -0.11097
B          0.16568        4.70615       -0.42310
B          2.95821        3.28783       -0.34157
B          3.04446        1.74790        0.22090
B          4.46101        0.93377       -0.24900
B          0.40020       -1.81586        1.07841
B          1.80661       -2.50949        0.30839
B          3.13804       -1.65941        0.21477
B          4.46338       -0.77618       -0.24690
B          4.51446       -2.41249       -0.66643
B          3.12129       -3.22288       -0.40392
B          1.73713       -4.08379       -0.41479
B          0.34416       -3.40403        0.32964
B          0.34751       -4.71450       -0.55561
B         -2.47758       -3.33256       -0.09200
B         -1.04923       -4.11323       -0.26380
B         -2.50641       -1.71012        0.46359
B         -3.83167       -2.48010       -0.25240
B         -3.92732       -0.91879        0.24593
B         -1.16102       -2.63596        0.60295
B         -1.24647        2.53200        0.68346
B          3.15196        0.05758        0.56978
B         -1.24897       -0.70091        0.80098
B          4.39496        2.58670       -0.62242
B         -5.16444        1.63904       -0.69822
B         -5.11492       -0.01030       -0.48098
B         -5.10715       -1.65656       -0.79690
B         -6.16218       -0.75255       -1.50124
B         -6.19232        0.75343       -1.45335
B          1.75768       -0.84603        0.91389
B         -0.60397        0.87059       -0.26274
B          0.26840        1.70927        0.98197
B          5.63785        1.71388       -0.96000
B          5.80200        0.16285       -0.93859
B          5.68260       -1.44296       -0.98606
B         -0.82634       -1.57410        2.01753
