45
isomer_1202.log	Energy: -113441.9678499
B         -2.45086        1.82276        0.46557
B         -2.37386        3.45143       -0.11323
B         -0.97944        4.21722       -0.28021
B          0.44099        3.42726        0.33876
B         -1.14779        0.95923        1.03390
B          1.77587        0.86119        0.72558
B          1.83406        4.13201       -0.42081
B         -3.73021        1.01839       -0.01541
B          1.84765        2.55074        0.45996
B         -3.79774        2.69131       -0.16029
B          0.45508        4.75248       -0.56121
B          3.19373        3.24736       -0.34834
B          3.21516        1.67992        0.16792
B          4.64459        0.72798        0.04555
B          0.27756       -1.65383        1.30466
B          1.55345       -2.48809        0.56721
B          3.02571       -1.74380        0.31853
B          4.41140       -0.90707       -0.21470
B          4.26549       -2.56343       -0.59815
B          2.83000       -3.27221       -0.16897
B          1.38127       -3.97942       -0.24409
B         -0.07545       -3.24169        0.39309
B          0.05063       -4.49906       -0.66321
B         -2.66169       -3.19354       -0.79760
B         -1.38434       -4.10347       -0.81327
B         -2.47444       -1.74121        0.39374
B         -3.73881       -2.13573       -0.65137
B         -3.68429       -0.64521       -0.00676
B         -1.81890       -3.42086        0.58976
B         -1.08891        2.68644        0.57109
B          3.25616       -0.02795        0.65497
B         -1.28544       -0.63242        1.02351
B          4.49819        2.36315       -0.68953
B         -5.12876        1.93557       -0.50968
B         -5.17670        0.23767       -0.07872
B         -5.16485       -1.31603       -0.68145
B         -6.37072       -0.47247       -0.99844
B         -6.24608        1.00917       -1.06114
B          1.68415       -0.78874        1.00809
B         -1.16977       -2.28437        1.41960
B          0.39901        1.88170        0.97145
B          5.51896        1.32927       -1.14819
B          5.69458       -0.21164       -1.10794
B          5.44582       -1.75474       -1.08640
B          0.24954        0.09472        0.96619
