45
isomer_1203.log	Energy: -113618.5925335
B          2.30608        1.62712       -0.48745
B          2.43917        3.33334       -0.33480
B          1.19716        4.24184       -0.60538
B         -0.24555        3.40799       -0.89841
B          1.21988        0.84288       -1.58420
B         -1.51294        0.83811       -0.59664
B         -1.56316        4.23375       -0.12719
B          3.20207        0.88728        0.68560
B         -1.60765        2.52710       -0.54184
B          3.60414        2.46203        0.32522
B         -0.19580        4.89088       -0.32225
B         -2.89855        3.35373        0.20018
B         -2.93165        1.72659        0.00906
B         -4.29298        0.83032        0.45009
B         -0.26636       -1.71338       -1.23910
B         -1.60103       -2.52915       -0.53739
B         -2.92579       -1.73021        0.01336
B         -4.28860       -0.83715        0.45644
B         -4.12711       -2.52438        0.90748
B         -2.88997       -3.35704        0.20528
B         -1.55350       -4.23502       -0.12640
B         -0.23965       -3.40745       -0.90256
B         -0.18595       -4.89057       -0.32673
B          2.44425       -3.32898       -0.33964
B          1.20512       -4.23945       -0.61284
B          2.30788       -1.62324       -0.48755
B          3.60579       -2.45686        0.32551
B          3.20016       -0.88308        0.68861
B          1.25072       -2.59884       -1.30338
B          1.24668        2.60297       -1.29884
B         -3.01680       -0.00233       -0.31780
B          1.22184       -0.83917       -1.58508
B         -4.13389        2.51872        0.90216
B          4.71561        1.68357        1.12293
B          4.48523        0.00158        1.31999
B          4.71418       -1.68039        1.12790
B          5.83910       -0.74546        1.74429
B          5.84024        0.74854        1.74044
B         -1.51366       -0.83938       -0.60336
B          1.74646        0.00131       -0.03441
B         -0.26867        1.71454       -1.23670
B         -5.13411        1.56194        1.56778
B         -5.31732       -0.00425        1.59333
B         -5.13140       -1.57017        1.57134
B          0.05033       -0.00020       -0.50704
