45
isomer_1204.log	Energy: -112161.4846893
B          2.57313        1.71092       -0.49479
B          2.56070        3.34682       -0.10585
B          1.15233        4.16982        0.15101
B         -0.30479        3.33455       -0.39374
B          1.11528        0.81471       -0.79543
B         -1.76005        0.83296       -0.86109
B         -1.69351        4.11065        0.30874
B          4.03578        0.84239       -0.43585
B         -1.68350        2.43456       -0.29239
B          3.97246        2.53165        0.03043
B         -0.27044        4.77931        0.44205
B         -3.12184        3.25776        0.32832
B         -3.14564        1.63928       -0.24666
B         -4.59862        0.81790        0.25556
B         -0.31595       -1.71701       -0.95108
B         -1.69138       -2.42108       -0.31924
B         -3.15093       -1.62161       -0.26469
B         -4.60125       -0.80112        0.24661
B         -4.43452       -2.36036        0.48206
B         -3.13240       -3.24642        0.29235
B         -1.70684       -4.10368        0.26331
B         -0.31560       -3.32437       -0.43056
B         -0.28595       -4.77838        0.38919
B          2.54983       -3.34912       -0.14288
B          1.13879       -4.17033        0.10488
B          2.56758       -1.70907       -0.51371
B          3.96422       -2.54010        0.00238
B          4.03304       -0.84600       -0.44519
B          1.13503       -2.53017       -0.67107
B          1.14326        2.53836       -0.64304
B         -3.23417        0.11116       -0.65117
B          1.11265       -0.80486       -0.80439
B         -4.42683        2.37389        0.50824
B          5.29884        1.72202        0.52089
B          5.29171        0.09218        0.27798
B          5.29322       -1.74025        0.50175
B          6.46420       -0.79065        1.10120
B          6.46672        0.76205        1.10979
B         -1.76272       -0.81304       -0.87019
B          1.87157       -0.53939        1.85631
B         -0.31035        1.73306       -0.93200
B         -5.93508        1.66407        0.72886
B         -6.13246       -0.04920        0.78573
B         -5.93746       -1.77949        0.78040
B          0.21194        0.41562       -0.20304
