45
isomer_1207.log	Energy: -113406.5972596
B          2.43562        1.82343       -0.56398
B          2.23479        3.43058        0.08603
B          0.85345        4.19694        0.20787
B         -0.56607        3.38327       -0.42890
B          1.06367        0.94353       -1.08014
B         -1.88193        0.76825       -0.89712
B         -1.95441        4.08394        0.31457
B          3.89754        1.14015       -0.32646
B         -1.94685        2.48022       -0.55176
B          3.63936        2.63070        0.29339
B         -0.59347        4.71979        0.46859
B         -3.28577        3.15112        0.27308
B         -3.32778        1.60946       -0.27215
B         -4.70374        0.59595        0.03355
B         -0.25466       -1.75253       -1.18063
B         -1.62581       -2.54089       -0.55673
B         -3.05785       -1.83304       -0.24622
B         -4.39251       -0.99810        0.38574
B         -4.22552       -2.64834        0.80149
B         -2.79311       -3.34041        0.33277
B         -1.38136       -4.11647        0.30778
B         -0.08295       -3.23962       -0.45687
B          0.04839       -4.61648        0.38779
B          2.72548       -3.04117       -0.09922
B          1.37454       -3.92210        0.13010
B          2.54739       -1.32980       -0.65424
B          4.28087       -2.62784        0.03940
B          3.90171       -0.53119       -0.33102
B          1.29690       -2.36664       -0.83969
B          0.98085        2.65521       -0.57168
B         -3.34771       -0.15053       -0.61624
B          1.11520       -0.63132       -1.13977
B         -4.56242        2.23884        0.67952
B          4.99984        1.92686        0.77519
B          5.17256        0.26985        0.39311
B          5.11691       -1.48760        0.73942
B          6.12267       -0.44782        1.46680
B          6.12183        1.04101        1.42610
B         -1.78196       -0.84569       -1.07782
B          3.34488       -1.59986        0.76158
B         -0.48875        1.84413       -1.02140
B         -5.55833        1.22023        1.24147
B         -5.69529       -0.30382        1.27454
B         -5.39651       -1.85286        1.29777
B         -0.36970        0.07066       -1.20563
