45
isomer_1209.log	Energy: -113434.6975478
B         -2.60366        1.63187        0.67794
B         -2.51949        3.23841        0.05973
B         -1.16700        4.11654       -0.04517
B          0.30809        3.37674        0.49190
B         -1.13049        0.83907        1.03779
B          1.56576        0.74823        0.09503
B          1.63926        4.14537       -0.34767
B         -4.01989        0.79968        0.41922
B          1.69942        2.50518        0.27342
B         -3.87866        2.36293       -0.14619
B          0.22586        4.72052       -0.36706
B          3.04920        3.30253       -0.37415
B          3.07069        1.69283       -0.06221
B          4.53976        0.82594       -0.01482
B          0.25479       -1.63993        0.63250
B          1.68656       -2.49220        0.51947
B          3.12152       -1.75401        0.40420
B          4.40474       -0.83240       -0.26152
B          4.42647       -2.53015       -0.45762
B          3.01014       -3.29866       -0.11626
B          1.62487       -4.18604       -0.11752
B          0.24282       -3.26566        0.20535
B          0.20971       -4.77091       -0.26937
B         -2.59377       -3.26260       -0.08387
B         -1.21409       -4.10206       -0.18054
B         -2.66812       -1.58128        0.35948
B         -3.99325       -2.41800       -0.25735
B         -4.10063       -0.87511        0.40870
B         -1.27418       -2.45443        0.33170
B         -1.21202        2.55723        0.68159
B          3.13155        0.00887        0.47105
B         -1.21073       -0.69479        0.59731
B          4.42199        2.47027       -0.71115
B         -5.15240        1.65673       -0.67851
B         -5.31236        0.00476       -0.33827
B         -5.28717       -1.67193       -0.69375
B         -6.39145       -0.71899       -1.29724
B         -6.30353        0.76802       -1.33256
B          1.69292       -0.75575        1.08420
B          0.32652        0.07706        1.58182
B          0.35415        1.73365        0.93662
B          5.51387        1.48387       -1.07641
B          5.74393       -0.07489       -0.98094
B          5.59044       -1.64279       -0.90495
B          0.17787       -0.04372       -0.15391
