45
isomer_1211.log	Energy: -113464.0907878
B         -2.31147        1.53228        0.23790
B         -2.21563        3.23797       -0.36543
B         -0.85083        4.04395       -0.37364
B          0.52225        3.37982        0.52758
B         -0.95909        0.91585        0.89517
B          1.92599        0.77065        1.19030
B          1.95118        4.03235       -0.28547
B         -3.85036        0.98839        0.01621
B          1.94185        2.46420        0.50183
B         -3.60015        2.49334       -0.47631
B          0.57725        4.60479       -0.53018
B          3.27666        3.12054       -0.22876
B          3.31824        1.58941        0.38219
B          4.56585        0.56982       -0.23281
B          0.24578       -1.61044        0.81928
B          1.55352       -2.44759        0.25827
B          3.05747       -1.80866        0.14881
B          4.60058       -1.10146       -0.00255
B          4.20764       -2.66368       -0.76674
B          2.80497       -3.37055       -0.41880
B          1.36525       -4.08733       -0.42574
B          0.02702       -3.16810        0.26411
B         -0.07171       -4.60162       -0.43255
B         -2.80564       -3.24344        0.05720
B         -1.43346       -3.96405       -0.08890
B         -2.77780       -1.64974        0.06473
B         -4.20302       -2.41246       -0.13335
B         -4.04177       -0.72740        0.02470
B         -1.38000       -2.17663        0.68214
B         -0.97835        2.56364        0.48313
B          3.34265       -0.14526        0.66011
B         -1.97951       -0.26720        0.37146
B          4.58583        2.22373       -0.65736
B         -5.12173        1.89617       -0.66155
B         -5.28699        0.23340       -0.29154
B         -5.49444       -1.43518       -0.54463
B         -6.54498       -0.39792       -1.07818
B         -6.39472        1.10282       -1.09528
B          1.72554       -0.82234        0.75758
B         -0.97362       -0.74893        1.61239
B          0.49518        1.80504        1.07495
B          5.65457        1.28234       -1.14887
B          5.72292       -0.28552       -1.18241
B          5.35571       -1.78838       -1.23660
B          0.45138        0.07338        1.62761
