45
isomer_1213.log	Energy: -112694.1019217
B          2.84601       -1.74045        0.26272
B          2.81845       -3.37373       -0.03467
B          1.41961       -4.21406       -0.26397
B         -0.10031       -3.38961        0.28755
B          1.54922       -0.99666        0.42229
B         -1.71653       -0.80390        0.75105
B         -1.49846       -4.15317       -0.40318
B          4.14587       -0.74246        0.27675
B         -1.60076       -2.45085        0.17511
B          4.19787       -2.45081       -0.18090
B         -0.05295       -4.77002       -0.53064
B         -2.98444       -3.28771       -0.43493
B         -3.07257       -1.66994        0.13083
B         -4.53705       -0.85727       -0.34975
B         -0.37362        1.89333        0.88910
B         -1.76091        2.53403        0.26462
B         -3.18347        1.66059        0.18218
B         -4.58416        0.77785       -0.32330
B         -4.50147        2.36389       -0.55925
B         -3.20041        3.28948       -0.33585
B         -1.80796        4.21423       -0.28447
B         -0.40807        3.49311        0.40171
B         -0.42327        4.90854       -0.38065
B          2.45420        3.56795        0.10119
B          0.99706        4.37641       -0.12764
B          2.51977        1.92799        0.45812
B          3.89176        2.70055       -0.06566
B          4.03888        1.03093        0.32081
B          1.07804        2.75703        0.61435
B          1.39786       -2.62075        0.47068
B         -3.21051       -0.08754        0.54416
B          1.02962        1.14384        0.72483
B         -4.35213       -2.44671       -0.62768
B          5.43081       -1.54675       -0.66487
B          5.32513        0.10322       -0.41041
B          5.21460        1.91687       -0.59949
B          6.39839        1.01312       -1.19191
B          6.52286       -0.49460       -1.22338
B         -1.77086        0.89184        0.78104
B          0.52232       -0.02720        0.75436
B         -0.21401       -1.72692        0.79722
B         -5.80401       -1.68758       -0.81075
B         -6.01858       -0.03267       -0.84330
B         -5.88676        1.60158       -0.82690
B         -0.73507       -2.59503        1.86288
