45
isomer_1215.log	Energy: -109744.1507224
B          2.62792       -1.61435        0.34552
B          2.61898       -3.24559       -0.06261
B          1.21194       -4.07124       -0.31827
B         -0.24421       -3.24839        0.24754
B          1.16890       -0.72769        0.66797
B         -1.70574       -0.75841        0.75563
B         -1.63525       -4.02180       -0.45330
B          4.08660       -0.73924        0.28553
B         -1.62724       -2.35289        0.16748
B          4.02638       -2.42314       -0.20016
B         -0.21061       -4.68304       -0.60549
B         -3.06708       -3.17456       -0.45177
B         -3.09284       -1.56308        0.14245
B         -4.55295       -0.74176       -0.33880
B         -0.27115        1.79617        0.86456
B         -1.65424        2.50204        0.25174
B         -3.11097        1.69733        0.19903
B         -4.56195        0.87701       -0.31070
B         -4.40326        2.43959       -0.52900
B         -3.10324        3.32864       -0.33892
B         -1.68092        4.19130       -0.31077
B         -0.28124        3.40954        0.36308
B         -0.26375        4.87322       -0.43965
B          2.58175        3.44934        0.05357
B          1.16557        4.26767       -0.17356
B          2.60891        1.80512        0.40486
B          3.99818        2.64785       -0.11216
B          4.07721        0.94889        0.31483
B          1.17437        2.61848        0.58298
B          1.20255       -2.44929        0.49503
B         -3.18431       -0.04020        0.56565
B          1.15990        0.89164        0.69608
B         -4.37693       -2.29396       -0.61115
B          5.34568       -1.60240       -0.69126
B          5.33395        0.02443       -0.42907
B          5.32643        1.85936       -0.63119
B          6.49648        0.92166       -1.25084
B          6.50512       -0.63081       -1.27778
B         -1.71489        0.88734        0.78419
B          0.18666       -0.84449        2.43849
B         -0.25196       -1.65338        0.80470
B         -5.88966       -1.58773       -0.81171
B         -6.09430        0.12527       -0.84682
B         -5.90615        1.85616       -0.82256
B         -0.01863       -2.95060        0.58663
