45
isomer_1216.log	Energy: -113507.5185702
B         -2.31023       -1.02524       -0.38643
B         -2.15729       -2.68585        0.22743
B         -0.91330       -3.21685        1.02274
B          0.52242       -3.16069       -0.12278
B         -0.91631       -1.11896       -1.37863
B          1.91007       -0.89345       -1.18510
B          1.94436       -3.23946        0.95995
B         -3.94354       -0.55306       -0.47968
B          2.05353       -2.51601       -0.58568
B         -3.61857       -2.05941        0.14893
B          0.48336       -3.08297        1.52701
B          3.38238       -3.00473        0.41466
B          3.31798       -1.54316       -0.31663
B          4.64408       -0.52288       -0.03447
B          0.15219        1.36105       -0.46579
B          1.49673        2.30730       -0.08402
B          3.04598        1.81671       -0.33395
B          4.60618        1.11938       -0.38728
B          4.27506        2.70251        0.36837
B          2.78380        3.35160        0.18441
B          1.24747        4.00835        0.34339
B         -0.03376        2.95501       -0.01365
B         -0.22340        4.44759        0.44445
B         -2.78742        2.61826        0.46907
B         -1.56596        3.59007        0.31871
B         -2.87314        0.91368       -0.26252
B         -4.21438        1.98156        0.52031
B         -4.47286        0.99292       -0.73904
B         -1.50783        2.00807       -0.32009
B         -0.97435       -2.73138       -0.93055
B          3.32557        0.11982       -0.87316
B         -1.29501        0.36021       -0.74705
B          4.78960       -2.13244        0.51486
B         -5.07355       -1.67170        0.36483
B         -5.60645       -0.13980       -0.30758
B         -5.67591        1.39546        0.50608
B         -6.82678        0.38341        0.68737
B         -6.46542       -1.03428        0.72820
B          1.68788        0.70480       -0.65996
B         -0.44688       -1.65645        0.46084
B          0.55113       -1.90172       -1.32929
B          5.90455       -1.16440        0.72543
B          5.92733        0.40472        0.64872
B          5.53733        1.87919        0.66273
B          0.31336       -0.36679       -0.30514
