45
isomer_1217.log	Energy: -112922.0076009
B         -2.61816       -1.71944       -0.42080
B         -2.54425       -3.34723       -0.00821
B         -1.15397       -4.18664        0.22726
B          0.28391       -3.37573       -0.33340
B         -0.97040       -0.92446       -0.55204
B          1.72024       -0.84878       -0.82286
B          1.67113       -4.13019        0.35318
B         -4.03125       -0.83689       -0.32446
B          1.66865       -2.47674       -0.24655
B         -3.95361       -2.49640        0.14336
B          0.26090       -4.76050        0.49095
B          3.08581       -3.27324        0.36465
B          3.12142       -1.65298       -0.20646
B          4.55608       -0.80225        0.27718
B          0.21898        1.77200       -0.91517
B          1.64087        2.45954       -0.27688
B          3.10045        1.64884       -0.23540
B          4.53464        0.81962        0.26299
B          4.39029        2.40024        0.52543
B          3.04498        3.26956        0.33218
B          1.63281        4.12465        0.32242
B          0.24038        3.36843       -0.36580
B          0.22405        4.75787        0.44742
B         -2.58812        3.37969       -0.03715
B         -1.21460        4.19082        0.18787
B         -2.61889        1.73611       -0.42145
B         -3.98121        2.52050        0.12950
B         -4.04108        0.87604       -0.32530
B         -1.21798        2.58579       -0.59464
B         -1.16501       -2.59063       -0.57856
B          3.20622       -0.09098       -0.61891
B         -1.16582        0.89954       -0.75504
B          4.44280       -2.39013        0.55788
B         -5.23985       -1.70406        0.66370
B         -5.24334       -0.06206        0.41841
B         -5.24190        1.71939        0.63972
B         -6.35249        0.76523        1.25573
B         -6.37110       -0.73645        1.27677
B          1.71904        0.83016       -0.85420
B         -1.56245       -0.67418       -1.54843
B          0.30494       -1.78048       -0.87748
B          5.82725       -1.57854        0.73790
B          5.99312        0.06182        0.78344
B          5.78867        1.69236        0.77465
B          0.59785        0.56076        0.14661
