45
isomer_1218.log	Energy: -113472.8311125
B         -2.35815        1.64593        0.66108
B         -2.54779        3.44694        0.27064
B         -1.27319        4.30203        0.08158
B          0.26062        3.69037        0.63899
B         -0.81723        1.09017        0.97612
B          1.27946        0.85387        0.85205
B          1.50602        4.27227       -0.37005
B         -3.62509        0.80987        0.11556
B          1.61398        2.65746        0.45230
B         -3.65937        2.45819       -0.15627
B          0.12033        4.88891       -0.37857
B          2.83532        3.33954       -0.44811
B          2.89322        1.79268        0.06220
B          4.17728        0.88082       -0.46843
B         -0.06893       -0.38086        0.90114
B          1.70628       -2.53911        0.64323
B          2.96632       -1.64876        0.19700
B          4.32752       -0.72013       -0.19278
B          4.35131       -2.40556       -0.58214
B          3.06882       -3.26017       -0.08470
B          1.77282       -4.19200       -0.22169
B          0.38434       -3.60681        0.54721
B          0.42818       -4.82374       -0.46904
B         -2.38448       -3.49213       -0.18466
B         -1.03518       -4.29155       -0.22170
B         -2.45361       -1.85298        0.59385
B         -3.65637       -2.56671       -0.41140
B         -3.60385       -0.94147       -0.06111
B         -1.17392       -2.93867        0.78784
B         -1.17096        2.78338        0.95815
B          2.95494        0.11850        0.39733
B         -1.97173       -0.11115        0.73072
B          4.20236        2.53807       -0.89658
B         -4.89304        1.65499       -0.79740
B         -4.79347       -0.01816       -0.70560
B         -4.79598       -1.67356       -1.09909
B         -5.80390       -0.69395       -1.78361
B         -5.92286        0.78445       -1.56207
B          1.49894       -0.77322        0.68849
B         -1.24244       -1.41229        1.53677
B          0.36210        2.15862        1.34336
B          5.32765        1.63074       -1.30392
B          5.53693        0.07996       -1.23895
B          5.39567       -1.46629       -1.13842
B          0.28114       -2.06847        1.34071
