45
isomer_0122.log	Energy: -113456.0030185
B          2.87179       -0.94104        0.34902
B          2.85005       -2.63177       -0.63784
B          1.56757       -3.47067       -0.77430
B          0.12733       -3.04197        0.04919
B          1.32868       -0.36051        0.60596
B         -1.64019       -0.82036        0.75729
B         -1.23095       -3.95097       -0.59110
B          4.43557       -0.92814        0.81699
B         -1.46152       -2.42368        0.16914
B          4.18113       -2.03588       -0.30369
B          0.21039       -4.23743       -0.97830
B         -2.73664       -3.36890       -0.30611
B         -2.97756       -1.88755        0.44560
B         -4.53539       -1.17522        0.25855
B         -0.48784        2.23979        1.19045
B         -1.93017        2.46685        0.28543
B         -3.24091        1.50838        0.31126
B         -4.53623        0.47962       -0.06937
B         -4.69845        2.08118       -0.56718
B         -3.31276        2.94438       -0.49902
B         -1.93933        3.60358       -1.01879
B         -0.50045        3.34627       -0.04261
B         -0.54183        3.89518       -1.53182
B          2.21720        2.68673       -0.76770
B          0.88771        3.42246       -1.16053
B          2.23244        1.18714        0.46873
B          3.56380        2.05707       -0.40137
B          3.84509        0.62766        0.36342
B          0.97118        2.40114        0.17431
B          1.47613       -1.87962       -0.07641
B         -3.21104       -0.16754        0.76488
B          0.87589        1.15844        1.40107
B         -4.22051       -2.76143       -0.41189
B          5.72510       -1.43019       -0.13918
B          5.53073        0.19211        0.29967
B          5.06147        1.63914       -0.45711
B          6.39302        0.96405       -0.85750
B          6.75799       -0.45274       -0.65907
B         -1.83790        0.88739        1.25576
B         -0.61516        1.15280        2.35913
B         -0.06195       -1.48356        0.62102
B         -5.47132       -1.96958       -0.76315
B         -5.84466       -0.47035       -0.71882
B         -5.82645        1.10023       -0.77736
B         -0.25105       -0.15247        1.56335
