45
isomer_1220.log	Energy: -111970.4264577
B         -2.60117       -1.68152       -0.50129
B         -2.59761       -3.32182       -0.13115
B         -1.19355       -4.15630        0.11187
B          0.26701       -3.32376       -0.42781
B         -1.13877       -0.79084       -0.79618
B          1.73619       -0.82590       -0.87100
B          1.65307       -4.11633        0.26141
B         -4.05827       -0.80480       -0.42785
B          1.65153       -2.43343       -0.32045
B         -4.00391       -2.49966        0.01885
B          0.22633       -4.77777        0.39148
B          3.08667       -3.27246        0.28631
B          3.11866       -1.64767       -0.27017
B          4.57819       -0.84099        0.23691
B          0.30752        1.73370       -0.92728
B          1.68917        2.42207       -0.29170
B          3.14393        1.61312       -0.25086
B          4.59074        0.77797        0.24649
B          4.43430        2.33540        0.50030
B          3.13708        3.23151        0.32481
B          1.71674        4.09774        0.31003
B          0.31863        3.33496       -0.38839
B          0.30041        4.77962        0.44806
B         -2.54570        3.37391       -0.09151
B         -1.12890        4.18359        0.16124
B         -2.57466        1.73836       -0.48105
B         -3.96460        2.57193        0.04887
B         -4.04518        0.88353       -0.41785
B         -1.13758        2.55245       -0.63346
B         -1.17687       -2.51592       -0.66346
B          3.21535       -0.11558       -0.65742
B         -1.12621        0.82867       -0.78659
B          4.39761       -2.39871        0.47228
B         -5.32380       -1.68763        0.52268
B         -5.30739       -0.05518        0.29843
B         -5.29696        1.77455        0.54318
B         -6.47192        0.82530        1.13536
B         -6.48396       -0.72735        1.12617
B          1.74894        0.82005       -0.86125
B         -1.07856       -0.79796        1.88609
B          0.28078       -1.71626       -0.94770
B          5.91085       -1.70069        0.69632
B          6.11893        0.01057        0.77219
B          5.93455        1.74197        0.78729
B         -0.30763        0.57758       -0.44218
