45
isomer_1221.log	Energy: -111921.5853651
B         -2.61060        1.71832        0.39892
B         -2.60278        3.35450        0.01102
B         -1.19621        4.18493       -0.23136
B          0.25973        3.35688        0.32737
B         -1.15119        0.82948        0.71353
B          1.72321        0.86256        0.80777
B          1.65132        4.14058       -0.36084
B         -4.06807        0.84227        0.32496
B          1.64403        2.46410        0.23923
B         -4.00887        2.53212       -0.13973
B          0.22620        4.80194       -0.50792
B          3.08418        3.29510       -0.36671
B          3.11064        1.67642        0.20759
B          4.57278        0.86286       -0.28063
B          0.29152       -1.69489        0.88199
B          1.67679       -2.39146        0.26346
B          3.13264       -1.58441        0.22386
B          4.58371       -0.75612       -0.27255
B          4.42740       -2.31606       -0.51051
B          3.12807       -3.20896       -0.33424
B          1.70675       -4.07360       -0.31984
B          0.30466       -3.30192        0.36061
B          0.29069       -4.75557       -0.46021
B         -2.55760       -3.34132        0.04445
B         -1.13994       -4.15507       -0.18973
B         -2.58753       -1.70160        0.41599
B         -3.97465       -2.53953       -0.11441
B         -4.05668       -0.84608        0.33339
B         -1.15238       -2.51538        0.58713
B         -1.18658        2.55305        0.56183
B          3.20307        0.14853        0.61211
B         -1.14026       -0.79006        0.72161
B          4.39545        2.41811       -0.53414
B         -5.32611        1.71594       -0.64379
B         -5.31295        0.08601       -0.40172
B         -5.30275       -1.74628       -0.62651
B         -6.47262       -0.80238       -1.23704
B         -6.48310        0.75029       -1.24480
B          1.73432       -0.78341        0.81598
B         -1.00287        0.50618        1.52686
B          0.26824        1.75511        0.86477
B          5.90947        1.71622       -0.74016
B          6.11629        0.00404       -0.79601
B          5.93020       -1.72724       -0.79358
B         -0.03765       -1.54420       -0.13797
