45
isomer_1224.log	Energy: -113420.5771233
B         -2.67500        1.59788        0.72272
B         -2.70554        3.20080        0.07108
B         -1.35767        4.10487       -0.03707
B          0.12100        3.42660        0.57452
B         -1.21731        0.78726        1.00964
B          1.48126        0.81895        0.13826
B          1.44137        4.18175       -0.40840
B         -3.97323        0.69435        0.25898
B          1.52360        2.59304        0.16342
B         -3.96160        2.28372       -0.10783
B         -0.01818        4.69386       -0.42447
B          2.81521        3.37182       -0.51172
B          2.92944        1.73502       -0.07560
B          4.44634        1.01978       -0.07311
B          0.33045       -1.68531        0.76805
B          1.85203       -2.43871        0.58173
B          3.19875       -1.54435        0.53009
B          4.54734       -0.67295        0.03953
B          4.57383       -2.37527       -0.33247
B          3.22026       -3.17958        0.02888
B          1.89203       -4.07364       -0.12930
B          0.41477       -3.29221        0.24686
B          0.50393       -4.72638       -0.40437
B         -2.37740       -3.35246       -0.30436
B         -0.93452       -4.13943       -0.34411
B         -2.50747       -1.74838        0.26899
B         -3.79968       -2.59113       -0.39356
B         -3.88285       -0.97933       -0.01888
B         -1.10735       -2.55453        0.37138
B         -1.31072        2.52248        0.65896
B          3.14995        0.12426        0.59947
B         -1.19146       -0.79834        0.70044
B          4.19858        2.53890       -0.89850
B         -5.35491        1.44828       -0.45313
B         -5.31843       -0.20664       -0.10866
B         -5.18282       -1.80749       -0.76376
B         -6.30399       -0.89026       -1.25043
B         -6.44438        0.58909       -1.04773
B          1.68364       -0.68759        1.09956
B          0.17706       -0.14511       -0.10832
B          0.22162        1.76537        0.92104
B          5.33581        1.62191       -1.25660
B          5.67050        0.09878       -1.02976
B          5.61987       -1.44179       -0.88288
B          0.27588        0.11209        1.61140
