45
isomer_1225.log	Energy: -113675.8851263
B          2.56369        1.72976       -0.53010
B          2.51449        3.30321        0.03728
B          1.15789        4.14888        0.10859
B         -0.26818        3.40340       -0.53996
B          1.17020        0.85078       -1.06686
B         -1.71676        0.84345       -0.78555
B         -1.64093        4.17044        0.25733
B          3.98484        0.84467       -0.22536
B         -1.72366        2.55182       -0.43071
B          3.87001        2.48404        0.27652
B         -0.21841        4.74810        0.35246
B         -3.00782        3.34162        0.27792
B         -3.12826        1.73408       -0.22026
B         -4.54649        0.89514        0.14486
B         -0.37017       -1.82492       -1.11738
B         -1.80305       -2.53247       -0.48977
B         -3.17396       -1.67986       -0.26039
B         -4.53184       -0.79670        0.23877
B         -4.40775       -2.44398        0.74887
B         -3.09316       -3.28020        0.26525
B         -1.74963       -4.14412        0.24535
B         -0.35211       -3.38441       -0.51414
B         -0.34315       -4.74583        0.35152
B          2.42621       -3.33482        0.04026
B          1.04613       -4.15711        0.12265
B          2.50877       -1.75995       -0.48865
B          3.80877       -2.53764        0.29320
B          3.95613       -0.91123       -0.21586
B          1.11844       -2.58962       -0.76455
B          1.18655        2.57729       -0.78846
B         -3.29337        0.01651       -0.60888
B          2.61003       -0.01623       -0.74701
B         -4.32525        2.50035        0.77086
B          5.10492        1.65049        0.84528
B          5.19565       -0.04568        0.52262
B          5.05996       -1.73975        0.86498
B          6.08431       -0.81537        1.61277
B          6.10527        0.70521        1.60539
B         -1.78766       -0.83025       -0.91267
B         -0.34284        0.00256       -1.09255
B         -0.31219        1.83077       -1.08752
B         -5.37138        1.56998        1.33926
B         -5.61972        0.03411        1.30498
B         -5.47391       -1.51791        1.30123
B          1.12942       -0.84863       -1.04155
