45
isomer_1226.log	Energy: -113327.2062827
B         -2.50593        1.65741        0.51769
B         -2.48161        3.36520       -0.12600
B         -1.13839        4.11039       -0.26823
B          0.30775        3.43753        0.41001
B         -1.08405        0.91732        0.91953
B          1.71977        0.95569        0.91566
B          1.69613        4.16290       -0.32107
B         -3.91466        0.99458        0.28452
B          1.74217        2.60528        0.51612
B         -3.79220        2.55111       -0.19986
B          0.28671        4.70250       -0.54802
B          3.10076        3.34909       -0.23694
B          3.12319        1.77412        0.26607
B          4.50571        0.82081       -0.07869
B          0.28814       -1.81540        1.28054
B          1.64218       -2.41890        0.45807
B          3.05267       -1.58177        0.21852
B          4.50907       -0.81959        0.24020
B          4.38121       -2.47371       -0.37551
B          2.98872       -3.26341       -0.12968
B          1.63652       -4.05222       -0.31195
B          0.21057       -2.99151       -0.24848
B          0.23919       -4.63680       -0.38878
B         -2.47786       -3.13834       -0.07467
B         -1.15379       -4.01997       -0.16671
B         -2.46214       -1.51097        0.46142
B         -3.86241       -2.30550       -0.10909
B         -3.88825       -0.72393        0.26445
B         -1.18760       -2.02027       -0.65495
B         -1.12841        2.52689        0.54367
B          3.13723        0.06398        0.65466
B         -1.01652       -0.70610        0.81287
B          4.40269        2.50512       -0.60130
B         -5.21272        1.76079       -0.53743
B         -5.25498        0.12852       -0.08652
B         -5.22409       -1.52818       -0.47506
B         -6.33985       -0.62041       -1.05484
B         -6.34875        0.87672       -1.06379
B          1.44499       -0.63261        0.55393
B         -1.12365       -2.61128        1.03095
B          0.33398        1.80579        1.03296
B          5.54195        1.53084       -1.04269
B          5.69762        0.00116       -0.95860
B          5.40946       -1.52808       -0.92742
B          0.19948       -1.20479       -0.39554
