45
isomer_1227.log	Energy: -112357.6960739
B         -2.73639       -1.50712       -0.42501
B         -2.78299       -3.18672       -0.01570
B         -1.42989       -4.10302        0.25707
B          0.23373       -3.24361       -0.37524
B         -1.28078       -0.55868       -0.72283
B          1.78953       -0.72419       -0.86603
B          1.67225       -4.00536        0.38796
B         -4.12171       -0.60349       -0.34308
B          1.69575       -2.32329       -0.25048
B         -4.11365       -2.28531        0.11968
B          0.29949       -4.75973        0.57340
B          3.09814       -3.14711        0.40499
B          3.15385       -1.54123       -0.19924
B          4.60531       -0.72346        0.30369
B          0.30200        1.84184       -0.92148
B          1.72137        2.52139       -0.31034
B          3.17430        1.71697       -0.25354
B          4.61383        0.89517        0.26890
B          4.46761        2.46525        0.50351
B          3.15548        3.33089        0.29545
B          1.74654        4.19200        0.27026
B          0.33954        3.44943       -0.39789
B          0.35344        4.85825        0.40985
B         -2.51378        3.52290       -0.05657
B         -1.08041        4.29451        0.15830
B         -2.59285        1.88558       -0.43112
B         -3.92750        2.74248        0.10476
B         -4.05972        1.08330       -0.34782
B         -1.15321        2.67673       -0.61079
B         -1.37061       -2.41665       -0.59203
B          3.25647       -0.00979       -0.62643
B         -1.18490        0.96755       -0.73745
B          4.44309       -2.28825        0.59008
B         -5.37671       -1.42984        0.63885
B         -5.31439        0.19346        0.38989
B         -5.25027        1.98994        0.61517
B         -6.40708        1.10270        1.22280
B         -6.47868       -0.42867        1.24772
B          1.79337        0.91810       -0.86161
B         -0.68011       -4.55485       -0.26547
B          0.45980       -1.60317       -1.00460
B          5.89451       -1.53679        0.80194
B          6.08687        0.14201        0.82447
B          5.91383        1.80155        0.79199
B         -0.41445       -1.61171       -0.56595
