45
isomer_0123.log	Energy: -113461.2864129
B          2.31095        1.96840       -0.55763
B          2.20263        3.58244        0.00983
B          0.79334        4.27946        0.25101
B         -0.59726        3.42928       -0.34169
B          1.04459        1.11544       -1.17116
B         -1.91793        0.87954       -1.06293
B         -1.98444        4.01336        0.51766
B          3.67604        1.17119       -0.14467
B         -1.99488        2.49817       -0.40417
B          3.57306        2.79333        0.20281
B         -0.63405        4.72602        0.61516
B         -3.27220        3.02940        0.52951
B         -3.26418        1.51315       -0.13909
B         -4.50715        0.44031        0.35453
B         -0.26409       -1.56263       -1.48677
B         -1.43988       -2.46228       -0.61552
B         -2.93678       -1.86386       -0.36101
B         -4.44194       -1.20404        0.01358
B         -3.95834       -2.78032        0.65084
B         -2.54189       -3.41948        0.15866
B         -1.00320       -3.93061        0.12709
B          0.18011       -3.06794       -0.71122
B          0.49432       -4.19665        0.46924
B          3.09897       -3.40196        0.92678
B          1.94995       -4.26891        0.93476
B          2.50648       -1.43589       -0.80163
B          3.58798       -2.06058        0.39305
B          3.73566       -0.55955       -0.25410
B          1.92420       -3.01715       -0.16857
B          0.91610        2.81433       -0.79981
B         -3.29915       -0.15961       -0.68701
B          1.21434       -0.44380       -1.26425
B         -4.51126        2.06128        0.96662
B          4.87299        1.98806        0.76776
B          5.01949        0.35575        0.31778
B          4.95385       -1.26929        0.78879
B          6.01240       -0.40808        1.43741
B          5.92563        1.07349        1.46681
B         -1.67659       -0.80964       -1.05190
B          1.27920       -2.11256       -1.52247
B         -0.55279        1.97477       -1.18368
B         -5.51248        1.03023        1.44570
B         -5.52320       -0.51957        1.34874
B         -5.09202       -1.99335        1.26647
B         -0.34655        0.21034       -1.23132
