45
isomer_1230.log	Energy: -113182.4243788
B         -2.32781        1.83746        0.47230
B         -2.26822        3.56827       -0.04911
B         -0.90057        4.28364       -0.12846
B          0.51957        3.51387        0.52138
B         -0.95125        1.02384        0.86709
B          1.74983        0.86728        0.93519
B          1.91609        4.12023       -0.28127
B         -3.68756        1.11745        0.32788
B          1.89837        2.56136        0.52514
B         -3.57118        2.69535       -0.32089
B          0.55221        4.76143       -0.47295
B          3.25957        3.20006       -0.22682
B          3.23168        1.65339        0.31156
B          4.55846        0.62791       -0.08298
B          0.19688       -1.60529        1.28773
B          1.37607       -2.36724        0.26485
B          2.90464       -1.76930        0.22869
B          4.38514       -1.01032       -0.16790
B          4.13957       -2.59605       -0.68241
B          2.69107       -3.27793       -0.39543
B          1.36983       -4.12536       -0.33365
B          0.01038       -3.24739        0.45593
B         -0.01094       -4.73332       -0.26932
B         -2.69343       -3.23617       -0.00398
B         -1.36536       -4.14059       -0.04058
B         -2.15868       -1.30110       -0.38893
B         -3.84915       -2.26899       -0.19946
B         -3.76145       -0.61839        0.33847
B         -1.42888       -2.44055        0.86424
B         -0.99164        2.70633        0.62057
B          3.13147       -0.08725        0.57876
B         -1.11581       -0.57124        0.80355
B          4.56399        2.27444       -0.54894
B         -4.89633        1.97397       -0.69995
B         -4.92574        0.28860       -0.43294
B         -5.07747       -1.36384       -0.76195
B         -6.04756       -0.39272       -1.39497
B         -6.03756        1.11399       -1.30148
B          1.62242       -0.78124        1.03107
B         -2.77032       -1.68854        1.24479
B          0.46213        1.86818        1.04014
B          5.60785        1.27526       -1.06718
B          5.68795       -0.28084       -1.05848
B          5.37434       -1.81879       -1.10470
B         -0.37261       -1.60984       -0.30460
