45
isomer_1231.log	Energy: -112188.1371858
B         -2.63458        1.78490        0.43682
B         -2.62175        3.42976        0.08771
B         -1.21277        4.26062       -0.13868
B          0.24155        3.41434        0.39646
B         -1.17764        0.88361        0.72647
B          1.69710        0.90409        0.81387
B          1.63424        4.20908       -0.27669
B         -4.09544        0.91611        0.34602
B          1.62233        2.51891        0.28358
B         -4.03123        2.61625       -0.07873
B          0.21119        4.87887       -0.40432
B          3.06397        3.35881       -0.30633
B          3.08596        1.72691        0.22945
B          4.54386        0.91987       -0.28173
B          0.25623       -1.64922        0.83137
B          1.63735       -2.33595        0.19289
B          3.09605       -1.53345        0.16854
B          4.54887       -0.69888       -0.31197
B          4.38623       -2.25218       -0.58634
B          3.08409       -3.14431       -0.42781
B          1.65965       -4.00391       -0.43011
B          0.26215       -3.24350        0.27210
B          0.24076       -4.67726       -0.58283
B         -2.60103       -3.26509       -0.03735
B         -1.18697       -4.07818       -0.29445
B         -2.62400       -1.63453        0.37295
B         -4.01554       -2.45467       -0.17346
B         -4.09021       -0.77201        0.31448
B         -1.19141       -2.45729        0.52100
B         -1.20709        2.61041        0.61567
B          3.17382        0.18956        0.59747
B         -1.17263       -0.73569        0.69622
B          4.37159        2.48130       -0.49792
B         -5.35274        1.81698       -0.59848
B         -5.34494        0.18174       -0.39506
B         -5.34202       -1.64474       -0.66314
B         -6.50998       -0.68245       -1.24809
B         -6.51478        0.87000       -1.21909
B          1.70219       -0.74164        0.78313
B         -0.33180       -3.17941        1.42986
B          0.24556        1.80028        0.89581
B          5.88249        1.77904       -0.72448
B          6.08288        0.06792       -0.82136
B          5.89046       -1.66225       -0.85937
B          0.63799       -0.77276        0.34596
