45
isomer_1233.log	Energy: -112027.3152990
B         -2.61726        1.77663        0.40788
B         -2.60361        3.41605        0.03410
B         -1.19419        4.24287       -0.20406
B          0.25954        3.40417        0.34446
B         -1.16081        0.87923        0.71176
B          1.71389        0.89992        0.80026
B          1.65287        4.18817       -0.33987
B         -4.07841        0.90713        0.32942
B          1.64002        2.50661        0.24572
B         -4.01333        2.60068       -0.12080
B          0.23014        4.85651       -0.47825
B          3.08227        3.33700       -0.35603
B          3.10337        1.71333        0.20422
B          4.56119        0.89814       -0.29406
B          0.27202       -1.65229        0.85541
B          1.65318       -2.34907        0.22800
B          3.11220       -1.54758        0.19232
B          4.56558       -0.72089       -0.29996
B          4.40247       -2.27808       -0.55104
B          3.09990       -3.16722       -0.37977
B          1.67513       -4.02621       -0.36985
B          0.27758       -3.25479        0.32016
B          0.25604       -4.70123       -0.51314
B         -2.58546       -3.27993        0.00966
B         -1.17159       -4.09734       -0.23450
B         -2.60799       -1.64338        0.39540
B         -3.99958       -2.47110       -0.13931
B         -4.07383       -0.78126        0.32326
B         -1.17579       -2.46438        0.55651
B         -1.18953        2.60418        0.57500
B          3.19044        0.18165        0.59535
B         -1.15642       -0.74034        0.70584
B          4.38964        2.45621       -0.53377
B         -5.33489        1.79420       -0.62913
B         -5.32783        0.16220       -0.40116
B         -5.32551       -1.66810       -0.64176
B         -6.49280       -0.71426       -1.24168
B         -6.49701        0.83845       -1.23602
B          1.71836       -0.74609        0.79425
B         -0.25414       -0.66401        1.95850
B          0.26267        1.79780        0.86800
B          5.90038        1.75004       -0.74900
B          6.10014        0.03758       -0.82006
B          5.90706       -1.69289       -0.83217
B         -0.16613       -2.58828       -0.09011
