45
isomer_1234.log	Energy: -113357.3249714
B          2.54035       -1.61368        0.67151
B          2.44016       -3.23491        0.12499
B          1.11985       -4.11352        0.01174
B         -0.34333       -3.35809        0.45563
B          1.13621       -0.82296        1.32818
B         -1.73589       -0.85464        0.56850
B         -1.69476       -4.17222       -0.26913
B          3.90768       -0.79328        0.26620
B         -1.78127       -2.54323        0.40740
B          3.82723       -2.39591       -0.08770
B         -0.28473       -4.75131       -0.30236
B         -3.10590       -3.32478       -0.31141
B         -3.19768       -1.73361        0.15299
B         -4.58949       -0.80307       -0.14576
B         -0.21213        1.70672        1.20280
B         -1.69575        2.54899        0.55224
B         -3.05480        1.73235        0.21817
B         -4.43745        0.87155       -0.31751
B         -4.33927        2.55103       -0.66831
B         -2.99184        3.34384       -0.12442
B         -1.54940        4.14244       -0.06887
B         -0.18973        3.34113        0.62322
B         -0.14015        4.68770       -0.22124
B          2.60901        3.24029       -0.04785
B          1.25928        4.04995       -0.02232
B          2.57569        1.52992        0.04186
B          3.96300        2.42232       -0.45045
B          4.01697        0.86015        0.11877
B          1.28748        2.41980        0.56714
B          1.15772       -2.55268        0.81150
B         -3.23923        0.00098        0.52791
B          1.21742        0.66000        0.27409
B         -4.39116       -2.45326       -0.79771
B          5.10451       -1.75813       -0.71279
B          5.13581       -0.07966       -0.65687
B          5.20193        1.62404       -0.95929
B          6.32715        0.60164       -1.47802
B          6.25993       -0.89783       -1.41453
B         -1.69114        0.81025        0.72734
B          0.64481        0.57091        1.90234
B         -0.37837       -1.76711        0.98542
B         -5.39490       -1.43920       -1.35452
B         -5.61514        0.09922       -1.29198
B         -5.42686        1.68254       -1.24997
B         -0.25184       -0.03471        0.41308
