45
isomer_1235.log	Energy: -112823.5514160
B          2.65287       -1.44880        0.41208
B          2.78526       -3.22453       -0.07644
B          1.37796       -4.48655       -0.39229
B         -0.40657       -3.30855        0.28726
B          1.21032       -0.56006        0.74891
B         -1.74561       -0.72334        0.78724
B         -1.69691       -4.08147       -0.36759
B          3.98951       -0.60059        0.34525
B         -1.72865       -2.37576        0.22537
B          3.96999       -2.30362       -0.13393
B         -0.24919       -4.77252       -0.58108
B         -3.08949       -3.23017       -0.33701
B         -3.13427       -1.58359        0.21427
B         -4.56753       -0.73802       -0.24143
B         -0.30729        1.81603        0.86771
B         -1.70395        2.53865        0.23435
B         -3.13052        1.74269        0.19811
B         -4.55826        0.91029       -0.25303
B         -4.44515        2.53822       -0.56373
B         -3.09240        3.34878       -0.36611
B         -1.69294        4.19152       -0.36235
B         -0.31078        3.43746        0.32375
B         -0.29196        4.79248       -0.47929
B          2.50610        3.46664        0.02414
B          1.11162        4.23803       -0.20569
B          2.54863        1.82099        0.43026
B          3.87599        2.65637       -0.10653
B          3.95955        1.06308        0.34876
B          1.15293        2.63742        0.57413
B          1.30679       -2.24902        0.60184
B         -3.20403        0.03769        0.59180
B          1.13585        0.94483        0.74625
B         -4.48675       -2.37587       -0.51850
B          5.25192       -1.43317       -0.60368
B          5.19443        0.18473       -0.35545
B          5.17872        1.90254       -0.58971
B          6.29097        1.05101       -1.17578
B          6.34887       -0.47231       -1.19835
B         -1.74057        0.94541        0.79708
B          1.08792       -3.38624       -0.56329
B         -0.33855       -1.56959        0.84440
B         -5.81850       -1.50865       -0.69176
B         -5.96916        0.11072       -0.74192
B         -5.80368        1.68282       -0.77185
B          0.57654       -1.62596        2.07385
