45
isomer_1236.log	Energy: -113404.1430236
B         -2.54513        1.60898        0.56956
B         -2.58557        3.26272        0.37441
B         -1.21803        4.08536        0.12189
B          0.23397        3.28467        0.47327
B         -1.27370        0.68763        1.16686
B          1.78997        0.86914        1.01752
B          1.54607        4.12099       -0.28295
B         -3.82080        0.80010       -0.08570
B          1.71620        2.52087        0.49030
B         -3.89283        2.44691        0.02801
B          0.14678        4.70368       -0.25524
B          2.93182        3.29280       -0.37856
B          3.12214        1.77200        0.20156
B          4.39587        0.84569       -0.46257
B          0.26901       -1.61967        0.97506
B          1.78020       -2.44549        0.62719
B          3.20662       -1.68594        0.38965
B          4.56535       -0.78672       -0.08739
B          4.36048       -2.43419       -0.61329
B          3.06128       -3.28089       -0.01074
B          1.63802       -4.11013        0.07272
B          0.24933       -3.27924        0.58678
B          0.23495       -4.72580       -0.04333
B         -2.55399       -3.33851       -0.03304
B         -1.20006       -4.11112        0.10181
B         -2.29138       -1.68281       -0.35713
B         -3.79133       -2.45965       -0.43263
B         -3.63202       -0.80065       -0.55658
B         -1.26083       -2.39497        0.73457
B         -1.20138        2.50788        0.90858
B          3.30512        0.09901        0.60783
B         -1.05222       -0.67709       -0.12952
B          4.26927        2.49832       -0.90369
B         -5.23348        1.64453       -0.45680
B         -4.86802        0.09735       -1.13042
B         -5.12214       -1.58115       -0.95253
B         -6.32867       -0.73203       -1.23316
B         -6.38391        0.71300       -0.91391
B          1.78524       -0.73776        0.82829
B         -1.11322       -0.87679        1.57701
B          0.30646        1.73109        1.14537
B          5.38078        1.58387       -1.47222
B          5.54186        0.04778       -1.44510
B          5.28920       -1.49176       -1.34944
B          0.24270        0.02802        0.58771
