45
isomer_1237.log	Energy: -112197.3928061
B          2.56737        1.75516       -0.42855
B          2.54145        3.39185       -0.05367
B          1.12701        4.21219        0.17866
B         -0.32044        3.37626       -0.37161
B          1.10604        0.85481       -0.73831
B         -1.78158        0.86123       -0.82882
B         -1.71575        4.15332        0.30968
B          4.03027        0.88031       -0.34513
B         -1.70369        2.47557       -0.27475
B          3.95596        2.57521        0.10557
B         -0.29624        4.81591        0.44861
B         -3.14044        3.30429        0.32727
B         -3.16769        1.67941       -0.23045
B         -4.62448        0.86140        0.26996
B         -0.35888       -1.69364       -0.88633
B         -1.73272       -2.39337       -0.24951
B         -3.18138       -1.59190       -0.21311
B         -4.62774       -0.76194        0.27752
B         -4.47068       -2.32334        0.53691
B         -3.16111       -3.21351        0.36188
B         -1.73351       -4.07033        0.35226
B         -0.33044       -3.31273       -0.33955
B         -0.29941       -4.74112        0.49037
B          2.55835       -3.33279       -0.02522
B          1.14244       -4.15795        0.21854
B          2.57711       -1.68235       -0.41536
B          3.96642       -2.50289        0.12359
B          4.03389       -0.81348       -0.33889
B          1.15009       -2.53042       -0.57601
B          1.13245        2.58155       -0.59891
B         -3.25856        0.13869       -0.61947
B          1.11897       -0.75925       -0.73153
B         -4.45834        2.42739        0.51173
B          5.27608        1.76908        0.61628
B          5.27413        0.13468        0.38675
B          5.27645       -1.68958        0.62658
B          6.42764       -0.73284        1.22568
B          6.43269        0.81604        1.22340
B         -1.79168       -0.79215       -0.82023
B          2.31690        0.19187       -0.20789
B         -0.32081        1.76876       -0.89652
B         -5.95029        1.70246        0.72452
B         -6.14537        0.00626        0.79632
B         -5.95639       -1.70953        0.81188
B          0.51591       -1.92858       -0.73415
