45
isomer_1239.log	Energy: -113380.3776173
B         -2.46732        1.73651        0.58038
B         -2.42968        3.45042       -0.05754
B         -1.06257        4.20519       -0.23470
B          0.38373        3.44862        0.37867
B         -1.12945        1.02702        1.09589
B          1.70842        0.85592        0.78187
B          1.76550        4.16104       -0.40300
B         -3.82896        0.98758        0.19966
B          1.78868        2.56682        0.45838
B         -3.72040        2.59548       -0.19098
B          0.37548        4.74924       -0.54800
B          3.10398        3.27600       -0.34331
B          3.14123        1.69666        0.20196
B          4.54669        0.77609       -0.08478
B          0.14497       -1.82955        1.15195
B          1.60528       -2.52902        0.60580
B          3.02325       -1.71792        0.31874
B          4.44029       -0.87089       -0.12825
B          4.27949       -2.51093       -0.62413
B          2.90806       -3.25980       -0.18930
B          1.54915       -4.08139       -0.37147
B          0.14204       -3.29326        0.16318
B          0.19621       -4.62001       -0.74118
B         -2.58573       -3.24341       -0.56236
B         -1.24308       -4.03243       -0.67566
B         -2.60139       -1.70996        0.72364
B         -3.76169       -2.29352       -0.45950
B         -3.83624       -0.78903        0.18539
B         -1.44224       -2.94998        0.58797
B         -1.11212        2.67164        0.60170
B          3.21451       -0.02039        0.62252
B         -1.35738       -0.55652        1.26898
B          4.38895        2.40401       -0.74253
B         -5.03551        1.79803       -0.70309
B         -5.09335        0.14851       -0.36257
B         -5.08276       -1.45540       -0.83464
B         -6.12709       -0.54377       -1.47382
B         -6.08848        0.94028       -1.42259
B          1.60154       -0.81097        0.92939
B         -1.39368       -1.97121        1.84441
B          0.37869        1.90951        1.02112
B          5.44256        1.41859       -1.24575
B          5.62316       -0.11512       -1.18840
B          5.40705       -1.65822       -1.14368
B          0.24020        0.03953        1.00968
