45
isomer_1240.log	Energy: -113474.5611812
B         -2.34263       -2.00815       -0.63165
B         -1.93277       -2.88371        0.84435
B         -0.45341       -3.24652        0.84462
B          0.66812       -3.35804       -0.53901
B         -2.07400       -0.30710       -0.30044
B          1.66656       -0.79057       -0.95084
B          2.22277       -3.85638        0.18953
B         -3.76703       -1.24022       -0.29216
B          2.09491       -2.50330       -0.87135
B         -3.48310       -2.61581        0.60588
B          0.93060       -3.95490        0.91569
B          3.56103       -3.08126       -0.25147
B          3.33487       -1.47259       -0.54879
B          4.60559       -0.41632       -0.21822
B          0.17839        1.92202       -1.19969
B          1.33933        2.54443       -0.15024
B          2.71830        1.79602        0.07025
B          4.15482        1.03318        0.44197
B          3.96561        2.64199        1.03080
B          2.55974        3.37478        0.59126
B          1.15525        4.15484        0.52344
B         -0.04567        3.48061       -0.54219
B         -0.29208        4.68944        0.45997
B         -2.83201        3.10231       -0.27089
B         -1.60616        4.02375       -0.01881
B         -2.54995        1.38879       -0.55754
B         -4.02092        2.11027       -0.07912
B         -3.87694        0.46615       -0.34055
B         -1.39961        2.51760       -0.96503
B         -0.80382       -2.42785       -0.78191
B          3.03420        0.23692       -0.55647
B         -0.97125        0.85028       -0.87271
B          4.78627       -2.12602        0.10968
B         -4.92516       -2.02213        0.78258
B         -5.19306       -0.47087        0.06267
B         -5.29792        1.20775        0.38215
B         -6.34620        0.31171        0.97376
B         -6.12952       -1.14218        1.23195
B          1.26713        0.80986       -0.69400
B         -1.10157       -1.38436        0.62389
B         -0.08043       -0.62615       -0.54580
B          5.73547       -1.08830        0.69742
B          5.65739        0.39676        1.01115
B          5.23586        1.89927        1.26503
B          0.65303       -1.93601       -1.47919
