45
isomer_1242.log	Energy: -113530.7320952
B         -2.73767       -1.34915       -1.00351
B         -3.09578       -2.94206       -0.56311
B         -1.99601       -3.53441        0.36699
B         -0.29878       -2.75412       -0.10894
B         -1.03031       -0.85081       -0.94949
B          1.79453       -1.15891       -1.27146
B          0.74748       -3.19327        1.26451
B         -3.90632       -0.48022       -0.20575
B          1.33609       -2.33824       -0.07801
B         -4.40877       -1.95616       -0.70935
B         -0.83491       -3.32072        1.33193
B          2.29841       -2.94691        1.09313
B          2.88827       -1.87190       -0.10260
B          4.41291       -1.23512        0.19848
B          0.68400        1.38402       -0.65665
B          2.18680        2.07438       -0.61021
B          3.59210        1.23665       -0.75527
B          4.93572        0.16347       -0.59622
B          4.96221        1.92284       -0.09061
B          3.68879        2.83348       -0.33380
B          2.40142        3.79380       -0.04845
B          0.88890        3.06046       -0.22492
B          1.11162        4.50828        0.35423
B         -1.78854        3.30280        0.76291
B         -0.38000        3.98907        0.50865
B         -2.01407        1.61986        0.31142
B         -3.26760        2.69848        0.85275
B         -3.53018        1.06180        0.50070
B         -0.68263        2.42577       -0.16106
B         -1.51450       -2.48159       -1.25077
B          3.44251       -0.51078       -1.02220
B         -0.82861        0.74760       -0.47950
B          3.89024       -2.50958        1.20459
B         -5.57257       -0.94242       -0.37335
B         -5.09203        0.68351        0.04206
B         -4.79889        2.17669        0.83703
B         -6.25312        1.52498        0.71954
B         -6.59622        0.15452        0.18378
B          1.96952        0.43830       -0.96794
B         -2.17008       -0.14555        0.25503
B          0.27042       -1.77499       -1.35426
B          5.27898       -1.95853        1.33077
B          5.86169       -0.58748        0.82633
B          5.92654        0.87431        0.45678
B         -1.77157       -1.83213        0.51584
