45
isomer_1243.log	Energy: -113523.1516816
B         -1.72451       -1.83170       -0.36683
B         -1.11882       -3.15757        1.00016
B          0.36444       -3.61919        0.73777
B          1.41597       -3.24209       -0.64757
B         -0.67995       -1.41044       -1.65427
B          1.79867       -0.57525       -0.78707
B          3.07595       -3.38009       -0.05706
B         -3.17773       -1.10764       -0.10407
B          2.55739       -2.07128       -1.10241
B         -2.19425       -2.04534        1.30612
B          1.89518       -3.98116        0.65650
B          4.18090       -2.31925       -0.51864
B          3.51527       -0.82204       -0.58809
B          4.49732        0.46583       -0.05686
B         -0.46745        1.14751       -0.67403
B          0.55665        2.41780        0.14934
B          2.17481        2.23944        0.02973
B          3.80647        1.98041        0.26692
B          3.09086        3.31196        1.07351
B          1.51143        3.63810        0.67051
B         -0.04318        4.00095        0.33894
B         -1.00040        2.74351       -0.43185
B         -1.49957        4.20596       -0.11709
B         -3.64602        2.13451       -1.08108
B         -2.57648        3.25286       -0.69547
B         -3.28362        0.42826       -0.98462
B         -4.84909        1.17128       -0.78894
B         -4.63164       -0.49656       -0.90225
B         -2.09715        1.59043       -1.10612
B         -0.22682       -2.64755       -0.49924
B          2.88647        0.80478       -0.57728
B         -1.62040       -0.15303       -1.04001
B          5.10707       -1.14603        0.06247
B         -3.50640       -1.32755        1.81690
B         -4.63300       -0.84274        0.69530
B         -5.81477        0.27935        0.08668
B         -5.94065       -0.15303        1.52947
B         -4.80912       -0.73792        2.31627
B          1.12567        0.90943       -0.51948
B         -0.53040       -1.63600        0.97622
B          0.91636       -1.80840       -1.56984
B          5.76253        0.04607        0.79403
B          5.28633        1.49160        1.10939
B          4.46650        2.80294        1.45423
B          0.07920       -0.55114       -0.20028
