45
isomer_1244.log	Energy: -111645.0088611
B          2.63987       -1.56984        0.36807
B          2.64339       -3.19948       -0.04650
B          1.24262       -4.03553       -0.30278
B         -0.21908       -3.22677        0.26903
B          1.17432       -0.69635        0.69677
B         -1.69980       -0.75079        0.78972
B         -1.60513       -4.00870       -0.43225
B          4.09128       -0.68268        0.30880
B         -1.60949       -2.34224        0.19512
B          4.04380       -2.36508       -0.18344
B         -0.17546       -4.65774       -0.58974
B         -3.04379       -3.17314       -0.42467
B         -3.08150       -1.56428        0.17597
B         -4.54915       -0.75296       -0.29927
B         -0.28580        1.81493        0.90606
B         -1.67575        2.51193        0.29864
B         -3.12600        1.69562        0.24549
B         -4.57124        0.86556       -0.26475
B         -4.42566        2.43022       -0.47717
B         -3.13255        3.32906       -0.28601
B         -1.71723        4.20313       -0.25713
B         -0.30995        3.43012        0.41099
B         -0.30590        4.89705       -0.38598
B          2.55201        3.49442        0.09625
B          1.12880        4.30209       -0.12498
B          2.59320        1.84910        0.44098
B          3.97459        2.70513       -0.07532
B          4.06823        1.00520        0.34479
B          1.15244        2.65006        0.62501
B          1.22162       -2.41693        0.51695
B         -3.18452       -0.04388        0.60537
B          1.15221        0.92273        0.73130
B         -4.36106       -2.30260       -0.57809
B          5.35545       -1.53171       -0.67378
B          5.33101        0.09392       -0.40512
B          5.30820        1.92952       -0.59996
B          6.48464        1.00381       -1.22553
B          6.50583       -0.54842       -1.25863
B         -1.72227        0.89471        0.82481
B          1.06670       -3.25131        1.43952
B         -0.23872       -1.63409        0.83251
B         -5.87985       -1.60790       -0.77301
B         -6.09846        0.10350       -0.80095
B         -5.92433        1.83575       -0.77020
B         -0.78753       -1.60516        0.11311
