45
isomer_1246.log	Energy: -112242.4177720
B         -2.61929        1.72616        0.39479
B         -2.60862        3.37039        0.04266
B         -1.20069        4.20294       -0.18403
B          0.25443        3.35983        0.35396
B         -1.16126        0.82759        0.68737
B          1.71337        0.85255        0.77727
B          1.64652        4.15542       -0.31944
B         -4.07877        0.85501        0.30429
B          1.63665        2.46627        0.24394
B         -4.01673        2.55446       -0.12353
B          0.22258        4.82284       -0.44955
B          3.07755        3.30725       -0.34625
B          3.10151        1.67637        0.19255
B          4.56107        0.87058       -0.31586
B          0.27632       -1.70289        0.79819
B          1.65903       -2.38872        0.16219
B          3.11654       -1.58408        0.13765
B          4.56853       -0.74821       -0.34312
B          4.40846       -2.30226       -0.61477
B          3.10752       -3.19604       -0.45574
B          1.68438       -4.05779       -0.45772
B          0.28512       -3.29818        0.24186
B          0.26662       -4.73355       -0.61044
B         -2.57776       -3.32464       -0.07006
B         -1.16225       -4.13608       -0.32443
B         -2.60353       -1.69336        0.33721
B         -3.99336       -2.51659       -0.20891
B         -4.07099       -0.83315        0.27587
B         -1.16984       -2.51370        0.48804
B         -1.19320        2.55414        0.57336
B          3.19135        0.13984        0.56349
B         -1.15379       -0.79175        0.66011
B          4.38665        2.43135       -0.53507
B         -5.33658        1.75226       -0.64297
B         -5.32651        0.11741       -0.43653
B         -5.32062       -1.70955       -0.70125
B         -6.48950       -0.75009       -1.28900
B         -6.49666        0.80240       -1.26286
B          1.72095       -0.79323        0.74956
B         -0.34128        0.40248        0.91991
B          0.26042        1.74671        0.85627
B          5.89880        1.73094       -0.75901
B          6.10184        0.01995       -0.85256
B          5.91204       -1.71057       -0.88756
B         -0.13698       -1.96074        2.43012
