45
isomer_1248.log	Energy: -110768.5350887
B          2.52091        1.79840       -0.49657
B          2.48867        3.43198       -0.09911
B          1.07055        4.23598        0.16417
B         -0.37689        3.38541       -0.38267
B          1.07388        0.88561       -0.79963
B         -1.80156        0.86828       -0.86079
B         -1.77407        4.14045        0.32595
B          3.99437        0.94791       -0.44438
B         -1.74410        2.46776       -0.28389
B          3.91071        2.63381        0.03077
B         -0.35925        4.82613        0.46056
B         -3.19161        3.26970        0.34329
B         -3.19612        1.65405       -0.24005
B         -4.63793        0.81198        0.26012
B         -0.32589       -1.66294       -0.96624
B         -1.69141       -2.38741       -0.33597
B         -3.16073       -1.60652       -0.27503
B         -4.62037       -0.80687        0.24276
B         -4.43381       -2.36511        0.46984
B         -3.12103       -3.23383        0.27354
B         -1.68493       -4.07305        0.23786
B         -0.30464       -3.27284       -0.45409
B         -0.25553       -4.73060        0.35806
B          2.56133       -3.26329       -0.17092
B          1.16106       -4.10334        0.07473
B          2.55802       -1.62125       -0.53325
B          3.96575       -2.43742       -0.02363
B          4.01269       -0.74030       -0.46249
B          1.13558       -2.45935       -0.69268
B          1.08058        2.60867       -0.63833
B         -3.26622        0.12706       -0.65236
B          1.09146       -0.73379       -0.81700
B         -4.48518        2.36868        0.52062
B          5.24789        1.83829        0.51498
B          5.26072        0.20977        0.26361
B          5.28546       -1.62364        0.47785
B          6.44545       -0.66260        1.08044
B          6.42860        0.88994        1.09709
B         -1.78369       -0.77755       -0.87844
B          2.01363       -1.16239        2.33651
B         -0.36333        1.78678       -0.92924
B         -5.98409        1.63894        0.73986
B         -6.15998       -0.07693        0.78812
B         -5.94341       -1.80460        0.77350
B          1.35847       -1.21995       -0.39749
