45
isomer_1249.log	Energy: -113367.3039564
B         -2.48835       -1.49952       -0.66082
B         -2.24784       -3.00940        0.28313
B         -1.33373       -4.17928       -0.29375
B          0.09814       -3.19578       -0.94593
B         -1.15922       -0.55924       -0.98830
B          1.72879       -0.69860       -0.98353
B          1.29583       -3.85084        0.31056
B         -3.75615       -0.61541       -0.06566
B          1.61264       -2.37775       -0.67925
B         -3.61215       -2.15335        0.48731
B          0.04968       -4.69494        0.10138
B          2.72594       -3.09795        0.36540
B          3.07132       -1.68167       -0.37325
B          4.51501       -0.84552        0.04575
B          0.36876        1.83878       -1.15410
B          1.76807        2.53598       -0.48062
B          3.16778        1.75156       -0.27153
B          4.40621        0.78098        0.33875
B          4.44247        2.46047        0.67885
B          3.08272        3.28372        0.28291
B          1.70456        4.11806        0.32195
B          0.34369        3.44764       -0.49936
B          0.30611        4.72151        0.44790
B         -2.46171        3.42215       -0.04190
B         -1.09501        4.15857        0.11904
B         -2.50781        1.73325       -0.61170
B         -3.76097        2.64067        0.11765
B         -3.90186        1.05341       -0.27009
B         -1.12888        2.63912       -0.81694
B         -1.36161       -2.51070       -1.28583
B          3.23370        0.05904       -0.63870
B         -1.06643        1.02769       -1.09982
B          4.13806       -2.37427        0.77402
B         -4.93495       -1.41137        0.92747
B         -5.18233        0.17074        0.28103
B         -5.12831        1.82637        0.63508
B         -6.13923        0.98272        1.38527
B         -5.99063       -0.47724        1.57053
B          1.74347        0.91114       -1.04038
B         -0.38673       -3.17991        0.80070
B          0.25395       -1.41764       -1.05025
B          5.26164       -1.50606        1.31669
B          5.64335       -0.02123        1.23210
B          5.55361        1.53569        1.16562
B         -0.87162       -1.74158        0.26261
