45
isomer_1251.log	Energy: -113379.2007597
B         -3.89063       -1.64314       -0.98782
B         -3.89549       -2.91281        0.05182
B         -2.60937       -3.71812        0.32976
B         -0.96242       -2.96316       -0.34689
B         -1.34046        0.33474       -1.27399
B          1.62122       -0.97606       -0.99434
B          0.20851       -3.76226        0.54847
B         -4.08175       -0.16334       -0.37602
B          0.61456       -2.19769       -0.33578
B         -4.91960       -1.63539        0.27664
B         -1.22613       -4.18663        0.70701
B          1.69845       -3.36301        0.47429
B          2.45437       -2.20826       -0.30928
B          4.13547       -1.93127        0.02850
B          1.29765        2.13261       -1.41566
B          2.67850        2.19399       -0.51270
B          3.66078        0.95084       -0.24267
B          4.68845       -0.34973        0.03984
B          5.13526        1.18401        0.67171
B          4.07213        2.41072        0.36900
B          2.97115        3.57059        0.56761
B          1.55995        3.47420       -0.45340
B          1.71580        4.37936        0.84434
B         -1.19186        3.41843        0.26280
B          0.23943        4.09892        0.47341
B         -1.48990        1.87684       -0.45885
B         -2.56333        2.69077        0.49467
B         -3.16357        1.24754       -0.17755
B         -0.06520        2.90490       -0.73269
B         -2.44622       -2.30017       -0.65844
B          3.24188       -0.66303       -0.74481
B         -0.11244        1.30130       -1.37087
B          3.26853       -3.18886        0.80308
B         -5.69004       -0.39436        0.70845
B         -4.72421        0.96961        0.58635
B         -3.96959        2.42281        1.02619
B         -5.36821        2.15743        1.54181
B         -6.16025        0.90850        1.39896
B          1.90739        0.65650       -1.06908
B         -2.61282       -0.57937       -1.15409
B         -1.04101       -1.42829       -0.93170
B          4.68057       -2.81061        1.25724
B          5.50159       -1.52958        1.11709
B          5.91261       -0.03812        1.05144
B          0.26022       -0.34136       -1.08386
