45
isomer_1252.log	Energy: -113260.6649125
B          2.60144       -1.35919        0.41111
B          3.15599       -3.04696       -0.07736
B          2.02014       -4.13938        0.12095
B          0.60349       -3.08052        0.52594
B          1.64451       -0.02166        0.81992
B         -1.53578       -0.90188        0.87752
B         -0.69783       -4.13358       -0.08870
B          3.70857       -0.26326       -0.00288
B         -0.83432       -2.32462        0.13567
B          4.09774       -1.84413       -0.34597
B          0.64337       -4.72588        0.11866
B         -2.03404       -3.44428       -0.56539
B         -2.46756       -1.96306       -0.10570
B         -4.08266       -1.46069       -0.49038
B         -0.78192        1.81622        1.22611
B         -2.29935        2.33377        0.85756
B         -3.52733        1.25573        0.45783
B         -4.61712        0.08779       -0.14905
B         -4.81683        1.77713       -0.50313
B         -3.74557        2.83607        0.07673
B         -2.57210        3.92784        0.02687
B         -1.05416        3.43316        0.64775
B         -1.29536        4.70374       -0.26819
B          1.63826        3.62201       -0.29240
B          0.20379        4.25898       -0.18452
B          1.95920        1.94434        0.44036
B          3.02624        2.98549       -0.49406
B          3.35710        1.41301       -0.05445
B          0.55738        2.80564        0.68240
B          2.14469       -2.85326        1.23618
B         -3.09222       -0.42627        0.50525
B          0.74953        1.22929        1.20227
B         -3.42851       -2.91189       -1.16863
B          5.18991       -0.77991       -0.81676
B          4.78190        0.82901       -0.60346
B          4.45208        2.45613       -0.97264
B          5.68847        1.76396       -1.59082
B          6.05329        0.32438       -1.48667
B         -1.91259        0.69036        1.00538
B          1.40464       -1.56107        1.81606
B         -0.09664       -1.33918        1.39798
B         -4.72920       -2.26852       -1.67020
B         -5.36074       -0.83416       -1.45854
B         -5.61079        0.67548       -1.23711
B          0.91089       -1.48619        0.03855
