45
isomer_1253.log	Energy: -113248.0875143
B          2.71521        1.66946       -0.46123
B          2.72455        3.33851       -0.01068
B          1.32141        4.12115        0.18519
B         -0.14308        3.38080       -0.34711
B          1.22854        0.88974       -0.87068
B         -1.75753        0.91608       -0.88158
B         -1.52402        4.15799        0.35875
B          4.10077        0.75801       -0.30689
B         -1.59098        2.52026       -0.28724
B          4.09092        2.47985        0.15431
B         -0.09327        4.71841        0.49415
B         -2.92646        3.36198        0.35256
B         -3.05763        1.80307       -0.22302
B         -4.53372        1.01491        0.25158
B         -0.78578       -2.01217       -0.96217
B         -2.06469       -2.56830       -0.21172
B         -3.32421       -1.64846       -0.22477
B         -4.61445       -0.68950        0.22861
B         -4.71959       -2.30724        0.63332
B         -3.35167       -3.24715        0.43236
B         -1.94856       -4.15302        0.47745
B         -0.55906       -3.43709       -0.32403
B         -0.51854       -4.71309        0.54296
B          2.33749       -3.38512       -0.03565
B          0.90190       -4.11035        0.16996
B          2.58601       -1.74706       -0.53186
B          3.87749       -2.64133        0.13499
B          4.03931       -0.99149       -0.32965
B          1.04990       -2.56584       -0.60349
B          1.29222        2.56464       -0.61778
B         -3.27142        0.15965       -0.62038
B          1.50473       -0.66288       -0.95580
B         -4.37387        2.66885        0.59150
B          5.38001        1.57983        0.66514
B          5.30254       -0.10600        0.41058
B          5.23775       -1.85131        0.61972
B          6.34374       -0.95636        1.27750
B          6.42846        0.59147        1.30131
B         -1.92673       -0.78768       -0.89240
B          2.53703        0.00423       -0.15956
B         -0.23866        1.77676       -0.92493
B         -5.71987        1.86734        0.78555
B         -5.95356        0.28487        0.79822
B         -5.89810       -1.32501        0.84301
B         -0.10454       -0.72141       -0.92607
