45
isomer_1254.log	Energy: -113445.7167402
B         -2.42560        1.73835        0.33560
B         -2.21847        3.32571       -0.45772
B         -0.80691        3.99755       -0.67042
B          0.58752        3.27246        0.22859
B         -1.05521        0.86260        0.62287
B          1.90079        0.74460        0.91327
B          2.08041        3.90989       -0.36502
B         -3.91588        1.15875        0.43908
B          1.98802        2.37658        0.49930
B         -3.65982        2.55666       -0.46572
B          0.69324        4.44055       -0.82868
B          3.43710        3.09709       -0.07861
B          3.39684        1.52181        0.52195
B          4.79344        0.51006        0.42725
B          0.16090       -1.74218        1.17021
B          1.48918       -2.42956        0.23097
B          3.02848       -1.84376        0.30354
B          4.43653       -1.04014       -0.11202
B          4.20340       -2.57837       -0.79305
B          2.66275       -3.18500       -0.66383
B          1.16735       -3.54504       -0.98239
B         -0.15614       -3.11070        0.18934
B         -0.35682       -3.70150       -1.32361
B         -2.79309       -3.07537        0.23846
B         -1.69620       -3.77265       -0.67925
B         -2.74172       -1.49187        0.84418
B         -4.17440       -2.10223        0.21693
B         -4.05135       -0.51148        0.63915
B         -1.48829       -2.11679       -0.50445
B         -0.93152        2.45180       -0.01396
B          3.36220       -0.24919        0.92966
B         -1.17316       -0.78744        0.41008
B          4.73688        2.20013       -0.23148
B         -5.11302        1.98141       -0.60457
B         -5.33239        0.39194       -0.00156
B         -5.41095       -1.30306       -0.21243
B         -6.49547       -0.32467       -0.85221
B         -6.38809        1.14954       -0.96492
B          1.73682       -0.97158        1.14163
B         -1.39491       -2.42318        1.26527
B          0.44572        1.68297        0.80822
B          5.77637        1.15691       -0.67189
B          5.87614       -0.34711       -0.77111
B          5.48383       -1.84834       -1.04105
B          0.33554       -0.02615        0.91441
