45
isomer_1255.log	Energy: -112182.7463699
B         -2.64061        1.68890        0.44598
B         -2.63511        3.32940        0.07677
B         -1.22994        4.16316       -0.16226
B          0.22876        3.32941        0.38060
B         -1.17950        0.79716        0.74404
B          1.69528        0.83040        0.82608
B          1.61702        4.12152       -0.30469
B         -4.09806        0.81312        0.36840
B          1.61299        2.43829        0.27622
B         -4.04154        2.50819       -0.07721
B          0.19102        4.78391       -0.43797
B          3.05016        3.27678       -0.32647
B          3.07976        1.65166        0.22917
B          4.54006        0.84437       -0.27470
B          0.26491       -1.72835        0.87734
B          1.64772       -2.41721        0.24485
B          3.10308       -1.60914        0.20810
B          4.55163       -0.77460       -0.28515
B          4.39488       -2.33179       -0.54023
B          3.09667       -3.22720       -0.36850
B          1.67576       -4.09256       -0.35776
B          0.27638       -3.32931        0.33758
B          0.25937       -4.77350       -0.49972
B         -2.58723       -3.36633        0.03351
B         -1.17029       -4.17675       -0.21615
B         -2.61615       -1.73098        0.42389
B         -4.00527       -2.56340       -0.10998
B         -4.08598       -0.87521        0.35749
B         -1.17996       -2.54604        0.57944
B         -1.21621        2.52234        0.61219
B          3.17454        0.11930        0.61581
B         -1.16791       -0.82236        0.73357
B          4.36103        2.40232       -0.50964
B         -5.36066        1.69726       -0.58481
B         -5.34582        0.06467       -0.36143
B         -5.33590       -1.76492       -0.60718
B         -6.50879       -0.81462       -1.20177
B         -6.51989        0.73804       -1.19174
B          1.70705       -0.81555        0.81544
B         -0.12403        0.92346       -0.66027
B          0.24023        1.72161        0.89963
B          5.87440        1.70350       -0.73028
B          6.08162       -0.00785       -0.80660
B          5.89621       -1.73912       -0.82312
B          0.42831       -0.96198        1.35153
