45
isomer_1257.log	Energy: -113370.2384435
B         -2.51273       -1.42720       -0.62064
B         -2.54983       -3.01026       -0.08463
B         -1.23226       -3.86659        0.13351
B          0.14884       -3.28986       -0.82988
B         -1.12049       -0.65353       -0.92700
B          1.66805       -0.74532       -0.93302
B          1.49707       -3.98427        0.42189
B         -3.91530       -0.57426       -0.28001
B          1.45608       -2.29661       -0.06119
B         -3.89934       -2.15719        0.06816
B          0.10399       -4.62049        0.38340
B          2.85348       -3.10500        0.50458
B          2.98366       -1.60322       -0.15285
B          4.39598       -0.70677        0.26046
B          0.32525        1.72909       -0.86482
B          1.79467        2.51496       -0.53537
B          3.22805        1.73640       -0.42370
B          4.65903        0.81730       -0.35129
B          4.53878        2.51944        0.29155
B          3.19341        3.32357        0.04131
B          1.78482        4.12567        0.27002
B          0.36562        3.37298       -0.27986
B          0.40033        4.68749        0.58993
B         -2.42438        3.36125        0.32108
B         -1.03850        4.08453        0.41916
B         -2.54639        1.72775       -0.49172
B         -3.76230        2.64064        0.32094
B         -3.98728        1.13635       -0.32077
B         -1.10025        2.50212       -0.35174
B         -1.30615       -2.52381       -1.27437
B          3.23711        0.01610       -0.75426
B         -1.12470        0.95455       -0.92488
B          4.24911       -2.32533        0.80382
B         -5.23434       -1.38928        0.48885
B         -5.30783        0.26850        0.07276
B         -5.21862        1.87502        0.60361
B         -6.33516        0.99057        1.15605
B         -6.32145       -0.49609        1.12565
B          1.71398        0.85598       -0.80344
B          0.15657       -2.97518        0.96062
B          0.25635       -1.57359       -1.13151
B          5.49601       -1.50921        1.10704
B          5.79159        0.00811        0.90857
B          5.56269        1.51122        0.80939
B         -0.92318       -1.92650        0.33462
