45
isomer_1258.log	Energy: -113322.7048165
B         -2.37227        1.66716        0.56647
B         -2.19594        3.29339       -0.19999
B         -0.86075        4.06602       -0.26471
B          0.53665        3.36386        0.44874
B         -0.09708        0.44439        0.21785
B          1.72188        0.74879        0.92435
B          1.96169        4.06825       -0.20035
B         -3.85981        1.07553        0.26366
B          1.96436        2.49311        0.58121
B         -3.53181        2.53804       -0.37792
B          0.56960        4.66392       -0.44311
B          3.30280        3.14238       -0.12455
B          3.24290        1.55414        0.35297
B          4.52852        0.53448       -0.08390
B          0.16722       -1.85906        1.49085
B          1.34798       -2.45822        0.29494
B          2.84451       -1.84286        0.12167
B          4.29059       -1.06464       -0.29620
B          4.00469       -2.66859       -0.87113
B          2.57930       -3.32638       -0.55942
B          1.17861       -4.07151       -0.51954
B         -0.04376       -3.28899        0.51368
B         -0.24487       -4.55027       -0.49092
B         -2.82564       -3.11589        0.31476
B         -1.56658       -3.95083       -0.01037
B         -2.72148       -1.44498        0.72858
B         -4.06470       -2.22405        0.06076
B         -4.04534       -0.60808        0.35500
B         -1.35521       -2.33321        0.86183
B         -0.94279        2.45231        0.55248
B          3.11153       -0.17274        0.53753
B         -1.26535       -0.63646        1.17107
B          4.60992        2.21957       -0.49431
B         -4.92256        1.91632       -0.91096
B         -5.03743        0.30056       -0.56391
B         -5.23408       -1.35856       -0.69381
B         -6.09805       -0.43673       -1.57914
B         -5.97637        1.07523       -1.65950
B          1.50540       -0.86869        0.99338
B         -1.17906        0.99274        1.46800
B          0.47657        1.77376        1.06140
B          5.60056        1.22918       -1.04547
B          5.61366       -0.35244       -1.15192
B          5.25388       -1.86516       -1.27754
B          0.02813       -1.11482       -0.06251
