45
isomer_1259.log	Energy: -113341.2289619
B         -2.31339       -1.43057       -0.24438
B         -2.69442       -3.15111       -0.36689
B         -1.52776       -4.22232       -0.18665
B          0.00538       -3.20032       -0.60116
B         -1.07438       -0.54035       -1.07666
B          1.49288       -0.73587       -0.82749
B          1.32933       -4.03970        0.28519
B         -3.74921       -0.56847       -0.09190
B          1.41678       -2.35201       -0.25492
B         -3.89091       -2.14946        0.01666
B         -0.15141       -4.52752        0.36751
B          2.67759       -3.29075        0.34962
B          2.90706       -1.69958       -0.17476
B          4.35008       -0.96184        0.20220
B          0.43145        1.82365       -1.09825
B          1.85560        2.49539       -0.50943
B          3.23618        1.65122       -0.30383
B          4.58929        0.66440        0.00102
B          4.50888        2.32718        0.59197
B          3.24507        3.22706        0.16868
B          1.90726        4.12059        0.22119
B          0.48972        3.47248       -0.52923
B          0.53329        4.75250        0.39858
B         -2.28522        3.55563        0.06193
B         -0.91376        4.24186        0.11457
B         -2.38807        1.84838       -0.57463
B         -3.57647        2.77522        0.28109
B         -3.71728        1.17125       -0.08088
B         -1.01086        2.66923       -0.75866
B         -1.33468       -2.37807       -1.28434
B          3.18958       -0.07626       -0.64576
B         -1.06564        1.06832       -1.14844
B          4.09489       -2.54506        0.79951
B         -5.10270       -1.33725        0.68305
B         -4.97194        0.34793        0.51196
B         -4.92083        1.98327        0.84106
B         -6.09904        1.10962        1.39399
B         -6.16904       -0.39403        1.32283
B          1.71915        0.86191       -0.85785
B         -1.22392       -2.79852        0.61236
B          0.25297       -1.65692       -1.40921
B          5.27108       -1.74575        1.26835
B          5.61294       -0.21632        1.18314
B          5.50993        1.30318        1.14951
B         -0.44544       -1.45220        0.19935
