45
isomer_1260.log	Energy: -113441.9681718
B         -2.47641       -1.74117       -0.39457
B         -2.66539       -3.19448        0.79391
B         -1.38879       -4.10591        0.80880
B         -0.07818       -3.24219       -0.39433
B         -1.28639       -0.63165       -1.02346
B          1.68337       -0.78975       -1.00701
B          1.37756       -3.98089        0.24356
B         -3.68352       -0.64302        0.00856
B          1.55080       -2.48883       -0.56611
B         -3.74176       -2.13552        0.64925
B          0.04646       -4.50120        0.66038
B          2.82667       -3.27397        0.17100
B          3.02352       -1.74579       -0.31564
B          4.41005       -0.90954        0.21654
B          0.40049        1.88200       -0.97275
B          1.85002        2.55064       -0.46236
B          3.21601        1.67789       -0.16761
B          4.64478        0.72504       -0.04510
B          4.50015        2.36078        0.68859
B          3.19645        3.24602        0.34662
B          1.83768        4.13219        0.41793
B          0.44385        3.42835       -0.34136
B          0.45913        4.75397        0.55815
B         -2.37058        3.45369        0.11304
B         -0.97547        4.21948        0.27788
B         -2.44876        1.82565       -0.46473
B         -3.79453        2.69352        0.16373
B         -3.72617        1.02003        0.01992
B         -1.08648        2.68781       -0.57227
B         -1.82189       -3.42121       -0.59354
B          3.25507       -0.02992       -0.65285
B         -1.14711        0.95988       -1.03357
B          4.26257       -2.56577        0.60058
B         -5.16618       -1.31356        0.67984
B         -5.17458        0.24200        0.08131
B         -5.12493        1.93862        0.51435
B         -6.24396        1.01288        1.06406
B         -6.37078       -0.46845        0.99751
B          1.77544        0.86045       -0.72449
B          0.24913        0.09495       -0.96476
B          0.27638       -1.65353       -1.30412
B          5.44361       -1.75772        1.08855
B          5.69422       -0.21493        1.10892
B          5.51996        1.32625        1.14790
B         -1.17150       -2.28312       -1.42024
