45
isomer_1261.log	Energy: -113419.1433112
B          2.66890       -1.59463        0.70813
B          2.69133       -3.19862        0.05397
B          1.34221       -4.09970       -0.05235
B         -0.13214       -3.42777        0.58425
B          1.20444       -0.79344        1.00003
B         -1.50654       -0.82609        0.18545
B         -1.46085       -4.18518       -0.38608
B          3.99067       -0.70806        0.28271
B         -1.53470       -2.59288        0.17054
B          3.95544       -2.28508       -0.12075
B         -0.00445       -4.68917       -0.42471
B         -2.84002       -3.37757       -0.46966
B         -2.96784       -1.76227        0.03257
B         -4.45058       -0.99784       -0.10465
B         -0.32783        1.67994        0.76632
B         -1.84374        2.44408        0.58356
B         -3.19657        1.55820        0.53386
B         -4.53571        0.69434       -0.00019
B         -4.54723        2.39379       -0.37245
B         -3.20702        3.19471        0.03073
B         -1.87369        4.08975       -0.11220
B         -0.40425        3.29333        0.25681
B         -0.48505        4.73606       -0.37805
B          2.38977        3.34751       -0.28431
B          0.95192        4.13843       -0.32582
B          2.51237        1.73227        0.26894
B          3.81248        2.58654       -0.35932
B          3.90562        0.98192        0.03096
B          1.11343        2.55189        0.38101
B          1.30524       -2.52755        0.66021
B         -3.16521       -0.11479        0.61496
B          1.18534        0.79167        0.68330
B         -4.20298       -2.53367       -0.88624
B          5.34865       -1.46383       -0.48229
B          5.31729        0.18818       -0.14602
B          5.18943        1.79629       -0.75962
B          6.29434        0.87916       -1.28720
B          6.42697       -0.60357       -1.10407
B         -1.68765        0.69653        1.10448
B         -0.19067        0.12089       -0.09767
B         -0.23116       -1.77141        0.94249
B         -5.31777       -1.61031       -1.29636
B         -5.63611       -0.08002       -1.09414
B         -5.57697        1.46393       -0.95352
B         -0.27910       -0.11596        1.62237
