45
isomer_1262.log	Energy: -113453.8379759
B          2.22944       -1.16739        0.47108
B          2.20311       -2.71286       -0.73957
B          0.87629       -3.45726       -1.11066
B         -0.51310       -3.35650        0.00101
B          0.86416       -1.14387        1.39925
B         -1.83942       -0.86927        1.23606
B         -1.95109       -3.63423       -0.97702
B          3.86310       -0.68595        0.35748
B         -1.93805       -2.46041        0.29375
B          3.55513       -2.08614       -0.40574
B         -0.55154       -3.94352       -1.47294
B         -3.32190       -2.95049       -0.48562
B         -3.24998       -1.50739        0.30512
B         -4.52390       -0.46723       -0.11463
B         -0.05446        1.50015        0.63919
B         -1.44852        2.43234        0.17166
B         -2.97008        1.89069        0.41112
B         -4.52745        1.18146        0.24159
B         -4.20739        2.77139       -0.42857
B         -2.72497        3.38308       -0.30986
B         -1.21876        3.96831       -0.57299
B          0.13779        3.05983        0.08648
B          0.22755        4.25768       -0.93898
B          2.86090        2.64221       -0.60398
B          1.58069        3.48585       -0.73064
B          2.87687        0.91497        0.36746
B          4.18128        2.03036       -0.27554
B          4.44010        0.89459        0.82027
B          1.49104        1.88991       -0.04130
B          0.96077       -2.39581        0.19708
B         -3.20425        0.17198        0.73113
B          1.32415        0.36445        0.61159
B         -4.70015       -2.07566       -0.58049
B          5.05680       -1.64912       -0.51081
B          5.52343       -0.19241        0.24624
B          5.72263        1.43262       -0.14536
B          6.74120        0.45870       -0.71594
B          6.37213       -0.95611       -0.93147
B         -1.63667        0.81528        0.69348
B         -0.25805        0.16964        1.56670
B         -0.50279       -2.23936        1.21800
B         -5.82285       -1.09110       -0.80179
B         -5.83713        0.47980       -0.74515
B         -5.45690        1.97632       -0.78627
B         -0.62918       -1.12952        2.35960
