45
isomer_1263.log	Energy: -113619.5588742
B         -2.10096       -2.10764       -0.61717
B         -1.47025       -2.87539        0.96699
B         -0.05036       -3.68091        0.89185
B          1.12275       -3.33253       -0.36077
B         -0.75055       -1.45058       -1.50836
B          1.88819       -0.66587       -1.01667
B          2.69200       -3.52655        0.39964
B         -3.35691       -1.13608       -0.58150
B          2.42048       -2.26673       -0.81580
B         -2.40404       -1.54098        1.11511
B          1.42332       -4.09798        1.00119
B          3.92446       -2.54087        0.01488
B          3.49394       -1.07012       -0.38579
B          4.57319        0.21605        0.02934
B         -0.35057        1.18805       -0.56083
B          0.81647        2.42245       -0.22291
B          2.46027        2.14011       -0.20887
B          4.12638        1.84309       -0.18569
B          3.45280        3.27221        0.56142
B          1.85891        3.62726        0.25875
B          0.32349        4.02390        0.20550
B         -0.80266        2.72180       -0.25427
B         -1.21583        4.23832        0.17603
B         -3.50066        2.07738       -0.22969
B         -2.42100        3.24637       -0.14908
B         -3.25740        0.55066       -0.86546
B         -4.66703        1.01855        0.26176
B         -4.74070       -0.23682       -1.16802
B         -2.00528        1.52286       -0.56462
B         -0.55750       -2.87775       -0.52350
B          3.07112        0.59861       -0.68862
B         -1.61106       -0.22895       -0.69637
B          5.00831       -1.39852        0.36625
B         -3.65638       -0.74395        1.69997
B         -4.69935       -0.73511        0.41772
B         -6.01947        0.16728       -0.46714
B         -6.10295        0.45672        1.00458
B         -4.85733        0.12270        1.93404
B          1.36263        0.81864       -0.58131
B         -0.80270       -1.31585        0.50272
B          0.82894       -1.91739       -1.41849
B          5.88197       -0.18240        0.80563
B          5.54794        1.31905        0.87351
B          4.83701        2.67454        0.97924
B          0.28638       -0.33765       -0.39524
