45
isomer_1265.log	Energy: -113339.9085747
B          2.34608        1.99032       -0.39674
B          2.02880        3.59808        0.28431
B          0.58398        4.25110        0.30092
B         -0.74089        3.34261       -0.39467
B          1.07428        1.13368       -1.06974
B         -1.80508        0.66713       -0.88780
B         -2.23786        3.96485        0.12931
B          3.81261        1.35776       -0.10773
B         -2.04762        2.34336       -0.68132
B          3.40075        2.82342        0.61294
B         -0.92579        4.69700        0.40557
B         -3.50197        2.96464       -0.00024
B         -3.34441        1.35871       -0.39597
B         -4.66474        0.25931       -0.20713
B          0.04472       -1.81131       -1.25803
B         -1.15004       -2.42039       -0.00384
B         -2.66710       -1.88558        0.10857
B         -4.18048       -1.19983        0.45783
B         -3.78113       -2.67316        1.22487
B         -2.23757       -3.20342        0.98796
B         -0.74451       -3.81815        1.08014
B          0.26678       -3.24441       -0.15782
B          0.65150       -4.36179        0.95297
B          2.63701       -2.77056       -0.72566
B          1.77215       -4.00049       -0.10218
B          2.89626       -1.06725       -1.19924
B          3.90995       -1.86664       -0.11750
B          4.06729       -0.25795       -0.46742
B          1.21962       -3.24439       -1.48405
B          0.87578        2.75297       -0.48507
B         -3.16712       -0.38641       -0.64542
B          1.37364       -0.38891       -1.41180
B         -4.70996        1.99399        0.33097
B          4.50194        1.99063        1.38030
B          4.98438        0.48955        0.73142
B          5.02814       -1.24163        0.73000
B          5.79558       -0.40868        1.82001
B          5.48307        1.00272        2.15745
B         -1.48829       -1.00724       -0.95342
B          1.69718       -1.83522       -1.96700
B         -0.51322        1.79887       -1.01173
B         -5.63379        0.91183        0.89551
B         -5.61437       -0.59195        1.15057
B         -5.11446       -2.02957        1.47053
B         -0.18108        0.02243       -1.08066
