45
isomer_1266.log	Energy: -113498.3423173
B         -2.36451        1.55024       -0.14277
B         -2.45810        3.29953       -0.16928
B         -1.06956        4.10543       -0.26846
B          0.36900        3.36389        0.35334
B         -1.02034        0.81461        0.69635
B          1.73694        0.80989        0.77583
B          1.76438        4.14142       -0.27203
B         -3.83772        0.89175        0.37151
B          1.78750        2.48761        0.39903
B         -3.84119        2.49953       -0.27871
B          0.37331        4.72727       -0.45359
B          3.15619        3.28358       -0.16777
B          3.23237        1.71986        0.30646
B          4.66617        0.82892        0.09182
B          0.37942       -1.70912        0.85364
B          1.78637       -2.48797        0.39785
B          3.23154       -1.72077        0.30551
B          4.66539       -0.83012        0.09034
B          4.53110       -2.47109       -0.49790
B          3.15458       -3.28399       -0.17006
B          1.76260       -4.14163       -0.27308
B          0.36780       -3.36421        0.35397
B          0.37129       -4.72707       -0.45383
B         -2.45949       -3.29897       -0.16831
B         -1.07137       -4.10529       -0.26772
B         -2.36570       -1.54990       -0.14120
B         -3.84271       -2.49882       -0.27678
B         -3.83842       -0.89050        0.37265
B         -1.11417       -2.56840        0.44125
B         -1.11313        2.56853        0.44036
B          3.27000       -0.00060        0.67806
B         -1.02080       -0.81455        0.69701
B          4.53265        2.47046       -0.49534
B         -5.18868        1.70633       -0.44545
B         -5.12479        0.00074       -0.25698
B         -5.18993       -1.70510       -0.44323
B         -6.44128       -0.76460       -0.70202
B         -6.44074        0.76641       -0.70310
B          1.73656       -0.81051        0.77632
B         -2.10898       -0.00010       -0.60296
B          0.38006        1.70886        0.85305
B          5.66850        1.54304       -0.91378
B          5.86286       -0.00067       -0.88897
B          5.66812       -1.54434       -0.91459
B         -2.54312        0.00040        1.11355
