45
isomer_1267.log	Energy: -113398.9797339
B         -2.42625        1.87210        0.31351
B         -2.32460        3.45889       -0.20875
B         -0.90188        4.19366       -0.31974
B          0.49954        3.41476        0.36400
B         -1.01250        0.96749        0.77855
B          1.74039        0.76691        0.84788
B          1.91670        4.08294       -0.28327
B         -3.85831        1.04922        0.18504
B          1.88241        2.46197        0.49420
B         -3.73951        2.68879       -0.37564
B          0.55246        4.72044       -0.53613
B          3.26821        3.18908       -0.13630
B          3.27060        1.61621        0.32450
B          4.65310        0.68925        0.01298
B          0.25915       -1.82624        1.05175
B          1.63473       -2.53618        0.34955
B          3.08128       -1.75989        0.18668
B          4.57676       -0.96004        0.02238
B          4.31190       -2.49321       -0.74359
B          2.92864       -3.26080       -0.45947
B          1.51551       -4.03449       -0.64255
B          0.19525       -3.37149        0.15197
B          0.11286       -4.57156       -0.88421
B         -2.62501       -3.18288       -0.19258
B         -1.30384       -3.98827       -0.49780
B         -2.60455       -1.64885        0.92253
B         -3.89865       -2.34950       -0.15907
B         -3.90557       -0.72833        0.29798
B         -1.27329       -2.78156        0.67972
B         -0.99127        2.64547        0.46732
B          3.23289       -0.08967        0.64116
B         -0.96926       -0.57719        1.10596
B          4.61282        2.35893       -0.46920
B         -5.04929        1.89595       -0.76412
B         -5.21004        0.20321       -0.32004
B         -5.14650       -1.49102       -0.63338
B         -6.16083       -0.54024       -1.36876
B         -6.12886        0.96448       -1.40972
B          1.62826       -0.86151        0.78702
B         -2.49448        0.16577        0.63758
B          0.43308        1.74952        0.91606
B          5.72271        1.42758       -0.93097
B          5.81583       -0.10621       -1.00055
B          5.48097       -1.60479       -1.14165
B         -1.30156       -1.81869        1.93916
