45
isomer_0127.log	Energy: -113434.6977153
B         -2.60446       -1.63099       -0.67826
B         -2.52066       -3.23711       -0.05981
B         -1.16874       -4.11590        0.04489
B          0.30653       -3.37619       -0.49124
B         -1.13129       -0.83767       -1.03786
B          1.56503       -0.74778       -0.09550
B          1.63726       -4.14521        0.34834
B         -4.02092       -0.79912       -0.41917
B          1.69800       -2.50505       -0.27323
B         -3.88021       -2.36205        0.14540
B          0.22369       -4.72026        0.36727
B          3.04725       -3.30294        0.37496
B          3.06970       -1.69331        0.06255
B          4.53972       -0.82795        0.01471
B          0.25573        1.64133       -0.63845
B          1.68798        2.49168       -0.52041
B          3.12241        1.75248       -0.40353
B          4.40508        0.83024        0.26211
B          4.42708        2.52779        0.45970
B          3.01137        3.29672        0.11788
B          1.62665        4.18476        0.11895
B          0.24426        3.26793       -0.21244
B          0.21202        4.77032        0.27176
B         -2.59151        3.26312        0.08618
B         -1.21184        4.10207        0.18212
B         -2.66703        1.58339       -0.36046
B         -3.99098        2.41809        0.26083
B         -4.09940        0.87585       -0.40622
B         -1.27281        2.45605       -0.33448
B         -1.21306       -2.55604       -0.68148
B          3.13182       -0.01023       -0.47142
B         -1.20982        0.69680       -0.60072
B          4.42036       -2.47182        0.71154
B         -5.15493       -1.65666        0.67648
B         -5.31257       -0.00402        0.33886
B         -5.28517        1.67217        0.69728
B         -6.39069        0.71957        1.29911
B         -6.30537       -0.76771        1.33131
B          1.69420        0.75532       -1.08550
B          0.17783        0.04619        0.15208
B          0.35306       -1.73306       -0.93678
B          5.51299       -1.48628        1.07692
B          5.74376        0.07236        0.98205
B          5.59049        1.64008        0.90697
B          0.32721       -0.07695       -1.58328
