45
isomer_1270.log	Energy: -113428.1595592
B          2.68189        1.63080       -0.77091
B          2.69662        3.06203        0.15715
B          1.34728        3.84303        0.35913
B          0.01548        3.32210       -0.72097
B          1.25252        0.75727       -0.78085
B         -1.59090        0.80644       -0.41141
B         -1.48736        4.11710        0.14186
B          3.95177        0.62782       -0.17236
B         -1.51846        2.49956       -0.33940
B          4.06156        2.22972        0.18534
B         -0.08433        4.41910        0.53645
B         -2.87253        3.37973        0.13190
B         -3.04652        1.76993       -0.29878
B         -4.53333        1.01559       -0.09294
B         -0.50753       -1.79928       -1.16222
B         -1.97535       -2.53545       -0.47483
B         -3.17189       -1.58142        0.03006
B         -4.55795       -0.64099        0.23520
B         -4.67269       -2.35323        0.60218
B         -3.38013       -3.22305        0.19442
B         -2.00342       -4.10267        0.17328
B         -0.57481       -3.42882       -0.68508
B         -0.60536       -4.66320        0.31412
B          2.18922       -3.31657        0.03652
B          0.80727       -4.09299        0.07831
B          2.43022       -1.84520       -0.69749
B          3.64789       -2.70296        0.25599
B          3.75639       -1.08226       -0.07471
B          0.91956       -2.50066       -0.65140
B          1.43561        2.67563       -1.25015
B         -3.18071        0.03863       -0.45744
B          2.52895       -0.18079       -0.78554
B         -4.28347        2.59333        0.53368
B          5.31859        1.35459        0.55280
B          5.19048       -0.35053        0.41149
B          5.00159       -2.03733        0.72798
B          6.14174       -1.16176        1.39611
B          6.31749        0.34366        1.29055
B         -1.68060       -0.82344       -0.47834
B          1.18130        2.15213        0.40348
B         -0.12410        1.55936       -0.62133
B         -5.41212        1.70428        1.06208
B         -5.81472        0.21203        1.00098
B         -5.76491       -1.34869        0.98612
B         -0.03025       -0.34260       -0.87106
