45
isomer_1271.log	Energy: -110436.5860855
B          2.59745       -1.61729        0.31928
B          2.59854       -3.25014       -0.08246
B          1.19627       -4.08834       -0.32299
B         -0.26180       -3.27529        0.25197
B          1.13393       -0.74140        0.65068
B         -1.73951       -0.79546        0.76283
B         -1.65227       -4.06288       -0.43405
B          4.04829       -0.73044        0.24355
B         -1.65281       -2.39153        0.18019
B          3.99789       -2.41667       -0.23511
B         -0.22355       -4.71296       -0.59577
B         -3.09099       -3.22746       -0.42365
B         -3.12505       -1.61392        0.16454
B         -4.59591       -0.80654       -0.30747
B         -0.32522        1.77126        0.84973
B         -1.71923        2.46330        0.24594
B         -3.16966        1.64642        0.20869
B         -4.61806        0.81220       -0.28555
B         -4.47414        2.37516       -0.51121
B         -3.17996        3.27562       -0.33559
B         -1.76463        4.15006       -0.32284
B         -0.35289        3.38251        0.34213
B         -0.35429        4.84312       -0.46636
B          2.50695        3.44467        0.00820
B          1.08219        4.25041       -0.21007
B          2.55067        1.80212        0.36559
B          3.92851        2.65422       -0.16644
B          4.02519        0.95766        0.26641
B          1.11101        2.60433        0.55272
B          1.18035       -2.46334        0.48410
B         -3.22553       -0.09020        0.58262
B          1.11177        0.87789        0.67260
B         -4.40938       -2.35830       -0.57531
B          5.30616       -1.58703       -0.74055
B          5.28320        0.04066       -0.48454
B          5.25880        1.87467       -0.69367
B          6.43129        0.94420       -1.31960
B          6.45253       -0.60823       -1.34063
B         -1.76203        0.85027        0.78511
B          1.53127       -0.34065        2.64294
B         -0.27803       -1.67822        0.80302
B         -5.92953       -1.66535       -0.76576
B         -6.14862        0.04576       -0.80574
B         -5.97459        1.77822       -0.78976
B          0.69542       -2.32309        0.83226
