45
isomer_1272.log	Energy: -113675.8839058
B          2.50930        1.75958       -0.48871
B          2.42776        3.33432        0.04016
B          1.04835        4.15745        0.12229
B         -0.35031        3.38492       -0.51515
B          1.13009        0.84825       -1.04245
B         -1.78611        0.83040       -0.91015
B         -1.74706        4.14489        0.24567
B          3.95652        0.90999       -0.21535
B         -1.80128        2.53282       -0.48851
B          3.80993        2.53669        0.29323
B         -0.34065        4.74622        0.35117
B         -3.09093        3.28115        0.26631
B         -3.17265        1.68104       -0.25893
B         -4.53165        0.79828        0.23765
B         -0.31356       -1.83014       -1.08699
B         -1.72520       -2.55087       -0.43158
B         -3.13015       -1.73385       -0.22179
B         -4.54673       -0.89325        0.14553
B         -4.32731       -2.49927        0.77007
B         -3.00948       -3.34054        0.27787
B         -1.64303       -4.16963        0.25821
B         -0.26942       -3.40220       -0.53707
B         -0.22079       -4.74777        0.35374
B          2.51313       -3.30406        0.03671
B          1.15597       -4.14890        0.10927
B          2.56311       -1.73085       -0.53043
B          3.86921       -2.48570        0.27558
B          3.98404       -0.84581       -0.22509
B          1.18538       -2.57765       -0.78944
B          1.11981        2.58988       -0.76577
B         -3.29357       -0.01597       -0.60921
B          1.17053       -0.85165       -1.07039
B         -4.40553        2.44484        0.75055
B          5.06064        1.73808        0.86510
B          5.19552        0.04362        0.52297
B          5.10403       -1.65250        0.84568
B          6.10410       -0.70773        1.60623
B          6.08373        0.81303        1.61364
B         -1.71827       -0.84356       -0.78958
B          2.60938        0.01628       -0.74568
B         -0.36871        1.82526       -1.11701
B         -5.47211        1.51904        1.30211
B         -5.61985       -0.03277        1.30492
B         -5.37359       -1.56888        1.33816
B         -0.34260       -0.00247       -1.09356
