45
isomer_1273.log	Energy: -112658.7334091
B         -2.65838        1.71686        0.42347
B         -2.65402        3.35802        0.05719
B         -1.24945        4.19306       -0.18088
B          0.20996        3.35925        0.35994
B         -1.19660        0.82548        0.71938
B          1.67818        0.86035        0.80039
B          1.59747        4.15343       -0.32446
B         -4.11531        0.84032        0.34487
B          1.59470        2.46917        0.25344
B         -4.06000        2.53622       -0.09773
B          0.17102        4.81518       -0.45602
B          3.03112        3.30961       -0.34830
B          3.06193        1.68352        0.20443
B          4.52253        0.87803       -0.30143
B          0.24940       -1.69937        0.84762
B          1.63240       -2.38625        0.21338
B          3.08724       -1.57722        0.17752
B          4.53510       -0.74091       -0.31479
B          4.37921       -2.29774       -0.57259
B          3.08162       -3.19425       -0.40196
B          1.66124       -4.06051       -0.39224
B          0.26165       -3.29936        0.30500
B          0.24521       -4.74206       -0.53487
B         -2.60204       -3.33760        0.00194
B         -1.18471       -4.14670       -0.24970
B         -2.63183       -1.70297        0.39526
B         -4.02063       -2.53528       -0.13958
B         -4.10221       -0.84798        0.33094
B         -1.19507       -2.51742        0.54881
B         -1.23442        2.55087        0.59063
B          3.15780        0.15052        0.58829
B         -1.18403       -0.79401        0.70601
B          4.34246        2.43629       -0.53353
B         -5.37882        1.72538       -0.60627
B         -5.36289        0.09241       -0.38582
B         -5.35194       -1.73673       -0.63484
B         -6.52564       -0.78609       -1.22729
B         -6.53770        0.76653       -1.21448
B          1.69096       -0.78557        0.78681
B          0.56362       -0.27684       -0.43232
B          0.22262        1.75053        0.87609
B          5.85617        1.73879       -0.75599
B          6.06442        0.02771       -0.83544
B          5.88006       -1.70365       -0.85499
B          0.46761       -1.06903        2.26407
