45
isomer_1274.log	Energy: -111048.8219282
B          2.58277        1.78734       -0.43247
B          2.55234        3.42534       -0.05349
B          1.13460        4.23658        0.18880
B         -0.31086        3.38441       -0.36081
B          1.13547        0.87568       -0.73762
B         -1.73939        0.86650       -0.82296
B         -1.71157        4.15159        0.32751
B          4.05304        0.93297       -0.35833
B         -1.68175        2.47212       -0.26342
B          3.97071        2.62431        0.09731
B         -0.29577        4.83439        0.46647
B         -3.13196        3.28544        0.34251
B         -3.13665        1.66341       -0.22286
B         -4.58530        0.83140        0.27441
B         -0.27090       -1.67027       -0.88774
B         -1.64398       -2.38346       -0.26105
B         -3.11129       -1.59744       -0.22126
B         -4.57270       -0.78759        0.27520
B         -4.39300       -2.34376        0.52117
B         -3.08137       -3.21865        0.34569
B         -1.64768       -4.06262        0.33152
B         -0.25907       -3.27441       -0.35755
B         -0.22143       -4.72317        0.47114
B          2.60443       -3.27050       -0.05021
B          1.19947       -4.10346        0.19288
B          2.60936       -1.63260       -0.43080
B          4.01015       -2.44736        0.09979
B          4.06617       -0.75539       -0.35751
B          1.18568       -2.46806       -0.59296
B          1.14626        2.60040       -0.59544
B         -3.20810        0.13214       -0.61874
B          1.14807       -0.74386       -0.73682
B         -4.42982        2.39043        0.51886
B          5.30122        1.83014        0.60167
B          5.31102        0.19888        0.36854
B          5.32815       -1.63209        0.60336
B          6.48604       -0.66796        1.20504
B          6.47396        0.88472        1.20428
B         -1.72658       -0.77948       -0.82215
B          1.48844       -2.25885       -0.11083
B         -0.29773        1.77976       -0.88942
B         -5.93283        1.66778        0.73348
B         -6.11456       -0.04689        0.79934
B         -5.90333       -1.77528        0.80577
B         -0.37975       -0.21259       -0.59030
