45
isomer_1276.log	Energy: -113418.0693319
B          2.30951        1.77160       -0.75319
B          2.26855        3.45206       -0.27574
B          0.92129        4.26507       -0.09298
B         -0.55165        3.52441       -0.61317
B          0.90126        1.24247       -1.49808
B         -1.65929        0.80209       -0.85752
B         -1.85495        4.09627        0.32908
B          3.57703        0.70786       -0.27722
B         -1.87413        2.50268       -0.49112
B          3.46137        2.48168        0.10981
B         -0.51323        4.78783        0.35085
B         -3.18536        3.13811        0.37204
B         -3.08541        1.54149       -0.01898
B         -4.35512        0.53322        0.47672
B         -0.14514       -1.79766       -1.23485
B         -1.53369       -2.62489       -0.58258
B         -2.91049       -1.87681       -0.22779
B         -4.32056       -1.11283        0.16155
B         -4.07675       -2.72811        0.72417
B         -2.70119       -3.50708        0.18526
B         -1.27079       -4.17899        0.05869
B         -0.07085       -3.41534       -1.01186
B          0.26539       -4.56433        0.10640
B          2.59614       -2.77160       -0.10627
B          1.69545       -4.14868       -0.18729
B          2.97836       -1.09019       -0.64509
B          4.01717       -2.12717        0.35018
B          4.53008       -0.76854       -0.42380
B          1.42102       -1.50496       -0.84361
B          0.94047        2.89601       -1.11131
B         -3.08398       -0.13961       -0.46739
B          1.82923        0.13427       -0.88181
B         -4.39745        2.22610        0.89200
B          4.19485        1.71082        1.25945
B          4.77781        0.22529        0.83529
B          5.24244       -1.43980        1.03233
B          5.71072       -0.40854        2.07057
B          5.08275        0.94355        2.25016
B         -1.48428       -0.85704       -0.77414
B          0.95790       -2.79425        0.09249
B         -0.54093        1.96938       -1.36862
B         -5.42795        1.20554        1.43806
B         -5.48827       -0.33903        1.40426
B         -5.12202       -1.85892        1.35910
B         -0.02533       -0.10344       -1.11405
