45
isomer_1277.log	Energy: -113304.4912500
B         -2.56963       -1.49805       -0.85457
B         -2.21050       -2.12890        0.84831
B         -1.21144       -3.65124        0.35333
B          0.23782       -3.18308       -0.49307
B         -1.09059       -0.68308       -1.00748
B          1.79851       -0.75824       -0.90544
B          1.64081       -3.94923        0.35936
B         -3.89360       -0.68106       -0.38306
B          1.75599       -2.41706       -0.42521
B         -3.79606       -2.29816        0.24706
B          0.22421       -4.29147        0.67986
B          3.05715       -3.21183        0.25889
B          3.17251       -1.64984       -0.29407
B          4.55364       -0.74784        0.13420
B          0.32883        1.64128       -0.77422
B          1.75169        2.45552       -0.36921
B          3.26335        1.76478       -0.31248
B          4.71876        0.87655       -0.23261
B          4.48860        2.52912        0.51420
B          3.13097        3.30964        0.20804
B          1.68667        4.10492        0.31896
B          0.31772        3.29336       -0.25817
B          0.28875        4.67281        0.49874
B         -2.50122        3.27195        0.06418
B         -1.14282        4.01086        0.23569
B         -2.60302        1.51803       -0.67747
B         -3.81162        2.52510        0.03394
B         -4.08933        1.02289       -0.62817
B         -1.17067        2.43392       -0.45173
B         -1.25503       -2.49620       -1.17172
B          3.32280        0.06089       -0.71100
B         -1.10977        0.86653       -0.98064
B          4.43518       -2.38910        0.64727
B         -4.87082       -1.34397        0.85847
B         -5.27347        0.15461        0.14686
B         -5.13149        1.85783        0.47023
B         -6.12470        1.09133        1.26946
B         -5.93212       -0.35206        1.52492
B          1.74688        0.83262       -0.70215
B         -2.69553       -3.27524       -0.37901
B          0.34739       -1.55376       -1.02065
B          5.61105       -1.51845        1.03067
B          5.81859        0.03867        0.96711
B          5.56327        1.53702        0.98165
B         -0.77770       -1.79236        0.38076
