45
isomer_1278.log	Energy: -113420.5864593
B          2.50858       -1.74961        0.27221
B          2.38083       -3.35382       -0.29869
B          0.93674       -4.14102       -0.34202
B         -0.41311       -3.29025        0.24018
B          1.19288       -0.79715        0.69930
B         -1.68176       -0.68795        1.09795
B         -1.89010       -4.07568       -0.12874
B          3.88192       -0.97747       -0.01965
B         -1.85081       -2.43962        0.57945
B          3.80224       -2.59126       -0.38846
B         -0.50105       -4.72813       -0.40275
B         -3.21874       -3.18223        0.02839
B         -3.19792       -1.54558        0.52951
B         -4.54749       -0.67546        0.04184
B         -0.22230        1.76599        0.92041
B         -1.52655        2.59383        0.16579
B         -2.93060        1.73334       -0.07431
B         -4.44701        1.01793       -0.07254
B         -4.20058        2.53699       -0.89727
B         -2.81803        3.37148       -0.50954
B         -1.44489        4.18224       -0.40666
B         -0.12274        3.42766        0.57448
B          0.01444        4.69613       -0.42231
B          2.70372        3.20234        0.06899
B          1.35409        4.10656       -0.03767
B          2.67492        1.60072        0.72089
B          3.96019        2.28658       -0.11040
B          3.97222        0.69622        0.25484
B          1.30927        2.52431        0.65877
B          1.10870       -2.55419        0.37090
B         -3.14943        0.12200        0.59925
B          1.21736        0.78849        1.00963
B         -4.57290       -2.37851       -0.33170
B          5.18421       -1.80699       -0.75976
B          5.31826       -0.20472       -0.10722
B          5.35364        1.44994       -0.45656
B          6.44280        0.58977       -1.04914
B          6.30522       -0.89041       -1.24688
B         -1.48058        0.81972        0.13578
B         -0.27526        0.11265        1.60997
B         -0.32936       -1.68373        0.76136
B         -5.61829       -1.44459       -0.88311
B         -5.67039        0.09574       -1.02879
B         -5.33725        1.61963       -1.25551
B         -0.17507       -0.14189       -0.11021
