45
isomer_0128.log	Energy: -113441.9569306
B          2.47388       -1.74350        0.39381
B          2.65944       -3.19519       -0.79664
B          1.38284       -4.10613       -0.81195
B          0.07332       -3.24195        0.39338
B          1.28562       -0.63348        1.02450
B         -1.68386       -0.78755        1.00542
B         -1.38329       -3.97954       -0.24399
B          3.68314       -0.64668       -0.00745
B         -1.55397       -2.48704        0.56560
B          3.73694       -2.13735       -0.65246
B         -0.05261       -4.50015       -0.66215
B         -2.83180       -3.27115       -0.16978
B         -3.02553       -1.74205        0.31490
B         -4.41347       -0.90469       -0.21253
B         -0.39815        1.88228        0.97176
B         -1.84533        2.55193        0.45529
B         -3.21058        1.67908        0.15380
B         -4.64458        0.73096        0.05029
B         -4.49779        2.36508       -0.69202
B         -3.19002        3.24761       -0.35711
B         -1.82947        4.13238       -0.42452
B         -0.43840        3.42888        0.34137
B         -0.45039        4.75385       -0.55944
B          2.37699        3.45165       -0.10741
B          0.98300        4.21866       -0.27523
B          2.45288        1.82336        0.47082
B          3.80013        2.68982       -0.15653
B          3.72992        1.01629       -0.01295
B          1.09076        2.68689        0.57488
B          1.81648       -3.42358        0.59119
B         -3.25411       -0.02548        0.65156
B          1.14878        0.95873        1.03585
B         -4.26857       -2.56159       -0.59514
B          5.16270       -1.31802       -0.68476
B          5.17640        0.23518       -0.08074
B          5.12910        1.93328       -0.50908
B          6.24471        1.00684       -1.06418
B          6.36843       -0.47493       -1.00300
B         -1.77343        0.86235        0.71950
B         -0.24838        0.09531        0.96456
B         -0.27826       -1.65332        1.30343
B         -5.45115       -1.75262       -1.07924
B         -5.69947       -0.20988       -1.10050
B         -5.52169        1.33064       -1.14245
B          1.16889       -2.28521        1.41937
