45
isomer_1281.log	Energy: -113422.5528274
B          2.59105        1.74008       -0.51259
B          2.58700        3.37359       -0.01641
B          1.20975        4.16274        0.15105
B         -0.24141        3.39482       -0.42335
B          1.13752        0.92168       -0.89636
B         -1.67933        0.86550       -0.91030
B         -1.63208        4.13770        0.32629
B          3.98781        0.86284       -0.33038
B         -1.65097        2.48541       -0.33557
B          3.93123        2.54172        0.16781
B         -0.19612        4.72194        0.45122
B         -2.99500        3.31530        0.31250
B         -3.07595        1.73047       -0.22948
B         -4.44687        0.89916        0.26272
B         -0.43793       -1.97969       -1.19705
B         -1.80437       -2.53872       -0.32881
B         -3.16739       -1.64792       -0.24180
B         -4.47219       -0.74028        0.19857
B         -4.49898       -2.39681        0.66443
B         -3.10399       -3.23137        0.38171
B         -1.74417       -4.12200        0.39439
B         -0.36899       -3.43026       -0.47544
B         -0.32563       -4.72383        0.49112
B          2.43396       -3.34667       -0.00029
B          1.05865       -4.14425        0.16413
B          2.48907       -1.78988       -0.53638
B          3.81329       -2.52807        0.21993
B          3.98030       -0.92402       -0.30446
B          1.08044       -2.57478       -0.70927
B          1.20592        2.57345       -0.70087
B         -3.22024        0.08687       -0.60828
B          1.14113       -0.76875       -0.94270
B         -4.41634        2.58845        0.60211
B          5.17971        1.68801        0.69597
B          5.18213       -0.00859        0.43664
B          5.09704       -1.73018        0.73869
B          6.16599       -0.79503        1.44880
B          6.20171        0.73330        1.43414
B         -1.75834       -0.78533       -0.86480
B          2.56916       -0.03993       -0.54306
B         -0.29469        1.75430       -1.02728
B         -5.65244        1.71776        0.91920
B         -5.84589        0.12644        0.95552
B         -5.67656       -1.45516        1.00967
B         -0.33702       -0.72001       -0.29170
