45
isomer_1282.log	Energy: -112510.9833478
B         -2.56434        1.80043        0.41958
B         -2.47396        3.41426       -0.00003
B         -1.06269        4.25436       -0.23573
B          0.38134        3.44199        0.31444
B         -0.95919        0.91896        0.72963
B          1.83792        0.86572        0.82528
B          1.76589        4.16038       -0.39606
B         -4.07956        0.87614        0.27619
B          1.78843        2.51975        0.22382
B         -3.91598        2.52921       -0.16660
B          0.35227        4.78376       -0.52195
B          3.16472        3.30090       -0.41361
B          3.20575        1.68872        0.17237
B          4.62716        0.81103       -0.32303
B          0.43252       -1.70192        0.92735
B          1.75437       -2.51842        0.26597
B          3.17806       -1.70088        0.22132
B          4.59545       -0.85572       -0.28803
B          4.47699       -2.44703       -0.55818
B          3.11271       -3.33097       -0.34672
B          1.75173       -4.17765       -0.32282
B          0.35265       -3.47757        0.35896
B          0.38403       -4.82637       -0.44709
B         -2.61615       -3.49308       -0.00899
B         -1.05983       -4.31915       -0.17889
B         -2.93502       -1.68732        0.33231
B         -4.17156       -2.53692       -0.19773
B         -4.17108       -0.86468        0.25408
B         -1.02949       -2.80120        0.57575
B         -1.05391        2.68908        0.58176
B          3.29071        0.08052        0.59718
B         -0.96551       -0.49930        0.76963
B          4.54010        2.41193       -0.62627
B         -5.23708        1.74883       -0.70606
B         -5.31339        0.09319       -0.48363
B         -5.38363       -1.67225       -0.71276
B         -6.42225       -0.68496       -1.31696
B         -6.39394        0.80583       -1.33368
B          1.82809       -0.84923        0.84212
B         -1.62152       -1.58756        0.68641
B          0.43825        1.83072        0.88372
B          5.87059        1.55309       -0.80051
B          6.01009       -0.07270       -0.82320
B          5.81756       -1.67807       -0.80903
B         -1.52727        1.20413        1.75969
