45
isomer_1284.log	Energy: -113473.5822739
B         -2.41839        1.74354        0.30782
B         -2.24181        3.39350       -0.31222
B         -0.83373        4.09434       -0.43141
B          0.56238        3.30227        0.34376
B         -1.04184        0.80991        0.48616
B          1.88813        0.76236        0.88512
B          2.03365        3.98305       -0.22374
B         -3.90194        1.16284        0.35009
B          1.96914        2.39917        0.55295
B         -3.67667        2.61292       -0.43926
B          0.65533        4.57558       -0.58706
B          3.40143        3.13722       -0.04709
B          3.39344        1.55782        0.50950
B          4.77670        0.54639        0.31477
B          0.18766       -1.74971        1.24388
B          1.53214       -2.48326        0.32086
B          3.00242       -1.80277        0.20352
B          4.40228       -1.00022       -0.24712
B          4.16006       -2.56217       -0.88063
B          2.65921       -3.24449       -0.61365
B          1.16474       -3.71690       -0.79862
B         -0.06111       -3.15262        0.34161
B         -0.38505       -3.97916       -1.00673
B         -2.82341       -3.08951        0.40790
B         -1.66218       -3.94042       -0.16335
B         -2.63742       -1.41034        0.53926
B         -4.14658       -2.11633        0.16970
B         -4.02997       -0.50924        0.47944
B         -1.38312       -2.30872       -0.55380
B         -0.95903        2.49438        0.12096
B          3.35059       -0.20394        0.82702
B         -1.07257       -0.85569        0.29525
B          4.68741        2.24772       -0.29878
B         -5.11184        2.01562       -0.66364
B         -5.30374        0.39830       -0.14639
B         -5.36703       -1.30214       -0.34679
B         -6.45848       -0.31934       -0.98897
B         -6.37351        1.16531       -1.07551
B          1.75382       -0.93704        1.07943
B          0.30795       -0.03888        0.94434
B          0.44583        1.66047        0.77063
B          5.70310        1.20801       -0.81871
B          5.81025       -0.29523       -0.93832
B          5.43003       -1.81619       -1.16676
B         -1.38824       -2.43639        1.25458
