45
isomer_1287.log	Energy: -113646.4373055
B         -2.29575        1.70621       -0.03369
B         -2.13103        3.38664       -0.45288
B         -0.67304        4.02634       -0.49898
B          0.75626        2.90705       -0.57301
B         -0.96311        0.73279        0.25277
B          1.83358        0.56417        0.78621
B          2.20059        3.82333       -0.12872
B         -3.84301        1.19538        0.36031
B          2.00393        2.21738        0.42132
B         -3.62107        2.70387       -0.39766
B          0.81488        4.47641       -0.33049
B          3.51319        2.97216        0.19512
B          3.33092        1.31950        0.68932
B          4.69965        0.42818        1.00794
B          0.24842       -1.79939        1.23907
B          1.16926       -1.86146       -0.33225
B          2.91237       -1.71184        0.04367
B          4.58110       -0.89682       -0.09922
B          3.93615       -2.25372       -1.17006
B          2.44275       -2.66153       -1.20469
B          1.03430       -3.44168       -1.14718
B          0.03330       -3.14903        0.20085
B         -0.28190       -4.16767       -0.97412
B         -2.87930       -3.18303        0.42351
B         -1.56516       -3.83958       -0.17051
B         -2.67951       -1.54506        0.76202
B         -4.18023       -2.26799        0.29694
B         -4.04916       -0.58945        0.58052
B         -1.37209       -2.54469        0.95360
B         -0.81566        2.40695       -0.12936
B          3.31972       -0.42983        1.09185
B         -1.14924       -0.82951        1.01908
B          4.79805        2.00765        0.25284
B         -5.04049        2.01742       -0.59173
B         -5.24405        0.36979       -0.08945
B         -5.40045       -1.34816       -0.17538
B         -6.47149       -0.34700       -0.80176
B         -6.31973        1.14353       -0.97656
B          1.74959       -1.10644        1.24937
B         -2.50790        0.15737        0.77668
B          0.58441        1.32858       -0.11520
B          5.66429        0.79518       -0.22786
B          6.03392       -0.54509       -0.87415
B          5.39049       -1.78654       -1.23226
B          0.43223       -0.38040        0.12420
