45
isomer_1289.log	Energy: -111875.7950768
B          2.59591       -1.63341        0.39165
B          2.59013       -3.26993        0.00517
B          1.18449       -4.10313       -0.23312
B         -0.27161       -3.27725        0.32841
B          1.13564       -0.74696        0.70901
B         -1.73846       -0.78518        0.81020
B         -1.66342       -4.06406       -0.35579
B          4.05160       -0.75478        0.31344
B         -1.65773       -2.38706        0.24283
B          3.99436       -2.44513       -0.14967
B         -0.23746       -4.72296       -0.50573
B         -3.09782       -3.22119       -0.35892
B         -3.12585       -1.60207        0.21405
B         -4.59064       -0.79159       -0.27134
B         -0.31125        1.77493        0.87879
B         -1.69927        2.46845        0.26301
B         -3.15374        1.65873        0.22760
B         -4.60449        0.82737       -0.26461
B         -4.45159        2.38740       -0.50427
B         -3.15346        3.28280       -0.33190
B         -1.73369        4.15003       -0.32166
B         -0.32857        3.38148        0.35607
B         -0.31922        4.83445       -0.46601
B          2.53284        3.42581        0.03299
B          1.11315        4.23679       -0.19847
B          2.56665        1.78648        0.40586
B          3.95097        2.62647       -0.12859
B          4.03716        0.93356        0.32045
B          1.13044        2.59779        0.57976
B          1.17380       -2.47059        0.55870
B         -3.22008       -0.07401        0.61749
B          1.12179        0.87256        0.71574
B         -4.41109       -2.34673       -0.52394
B          5.30889       -1.62699       -0.65760
B          5.29335        0.00312       -0.41689
B          5.27927        1.83519       -0.64321
B          6.44939        0.89290       -1.25575
B          6.46267       -0.65976       -1.26221
B         -1.75254        0.86077        0.81704
B          1.84240       -0.42317        1.47873
B         -0.28174       -1.67503        0.86446
B         -5.92687       -1.64778       -0.72691
B         -6.13693        0.06398       -0.78373
B         -5.95400        1.79560       -0.78322
B          0.00665       -1.96793        0.01208
