45
isomer_0129.log	Energy: -113524.0903009
B         -2.35204       -1.59542       -0.52366
B         -1.95734       -3.16951        0.25015
B         -1.12078       -4.22231       -0.62243
B          0.34326       -3.37038       -1.39410
B         -1.24866       -0.75654       -1.32134
B          1.56982       -0.70578       -0.69499
B          1.51507       -4.06354       -0.04295
B         -3.58116       -0.84412        0.16925
B          1.32407       -2.33619        0.00646
B         -3.27612       -2.36055        0.69344
B          0.28656       -4.80336       -0.45402
B          2.81152       -3.16411        0.37201
B          2.88868       -1.59561        0.01783
B          4.34996       -0.69559        0.27943
B          0.23963        1.87913       -1.31740
B          1.56318        2.62980       -0.50051
B          2.94596        1.85453       -0.15922
B          4.17417        0.93864        0.55925
B          4.10610        2.62109        0.90566
B          2.81236        3.44519        0.28830
B          1.45481        4.26972        0.11455
B          0.13069        3.46484       -0.75499
B          0.03673        4.82970        0.08332
B         -2.64242        3.35522       -0.27626
B         -1.33566        4.18840       -0.22772
B         -2.59244        1.63217       -0.70714
B         -3.84900        2.46285        0.10215
B         -3.84540        0.84602       -0.07543
B         -1.31421        2.59446       -1.07715
B         -1.16757       -2.52795       -1.20415
B          3.10467        0.12149       -0.47146
B         -1.27388        0.89920       -1.31406
B          4.08658       -2.35174        0.92040
B         -4.55458       -1.63770        1.36111
B         -4.94152       -0.08853        0.72394
B         -5.00399        1.58577        0.92184
B         -5.81010        0.70500        1.88305
B         -5.56517       -0.74843        2.10430
B          1.64379        0.97280       -0.95247
B         -0.13096       -3.10416        0.33149
B          0.34431       -1.70502       -1.31018
B          5.12324       -1.38718        1.48976
B          5.33621        0.15257        1.53550
B          5.16415        1.72117        1.51749
B          0.20748        0.06398       -1.22906
