45
isomer_1291.log	Energy: -113441.9622362
B         -2.47437       -1.74294       -0.39434
B         -2.65977       -3.19415        0.79687
B         -1.38257       -4.10467        0.81232
B         -0.07396       -3.24225       -0.39310
B         -1.28538       -0.63398       -1.02466
B          1.68463       -0.78765       -1.00663
B          1.38315       -3.97941        0.24414
B         -3.68458       -0.64635        0.00581
B          1.55390       -2.48756       -0.56627
B         -3.73757       -2.13618        0.65233
B          0.05276       -4.49962        0.66320
B          2.83159       -3.27125        0.16956
B          3.02538       -1.74233       -0.31562
B          4.41276       -0.90523        0.21363
B          0.39825        1.88159       -0.97184
B          1.84655        2.55212       -0.45829
B          3.21253        1.68047       -0.15997
B          4.64415        0.73022       -0.04776
B          4.49807        2.36495        0.69066
B          3.19165        3.24863        0.35277
B          1.83094        4.13271        0.42308
B          0.43900        3.42748       -0.33918
B          0.45146        4.75243        0.56124
B         -2.37555        3.44972        0.10937
B         -0.98183        4.21632        0.27782
B         -2.45247        1.82167       -0.47094
B         -3.79883        2.68967        0.15685
B         -3.73152        1.01688        0.01014
B         -1.09028        2.68518       -0.57403
B         -1.81731       -3.42282       -0.59120
B          3.25437       -0.02598       -0.65169
B         -1.14862        0.95787       -1.03642
B          4.26779       -2.56185        0.59639
B         -5.16351       -1.31640        0.68533
B         -5.17767        0.23661        0.08070
B         -5.12892        1.93463        0.50877
B         -6.24445        1.00888        1.06523
B         -6.36878       -0.47286        1.00471
B          1.77356        0.86236       -0.72030
B         -1.16874       -2.28584       -1.41999
B          0.27834       -1.65352       -1.30389
B          5.44941       -1.75298        1.08203
B          5.69747       -0.20989        1.10378
B          5.52053        1.33080        1.14499
B          0.24843        0.09452       -0.96555
