45
isomer_1293.log	Energy: -113393.7864524
B          2.34702        1.91119       -0.52387
B          2.16653        3.55141        0.12878
B          0.74925        4.20754        0.24219
B         -0.60216        3.37210       -0.43205
B          1.14949        0.99586       -1.11204
B         -1.83575        0.75766       -0.94995
B         -2.07270        4.02341        0.25354
B          3.75460        1.19574       -0.21179
B         -1.98376        2.42942       -0.55913
B          3.50127        2.75379        0.37956
B         -0.71469        4.68356        0.48842
B         -3.36709        3.06495        0.19473
B         -3.30644        1.48493       -0.29485
B         -4.60943        0.45508        0.09664
B         -0.12020       -1.72842       -1.14910
B         -1.43465       -2.56584       -0.37188
B         -2.94385       -1.92959       -0.21554
B         -4.44254       -1.21196        0.06729
B         -4.07803       -2.75214        0.81621
B         -2.62611       -3.42313        0.42489
B         -1.11048       -4.02214        0.54763
B          0.14786       -3.23202       -0.41729
B          0.38213       -4.21393        0.82994
B          2.88338       -3.16010       -0.68534
B          1.68486       -3.40110        0.43026
B          2.78261       -1.36666       -1.13366
B          4.06955       -2.24654       -0.25688
B          3.90111       -0.55359       -0.35148
B          1.45285       -2.41026       -1.08673
B          0.93760        2.71289       -0.62086
B         -3.27040       -0.25492       -0.69079
B          1.33687       -0.61501       -1.10076
B         -4.61756        2.13030        0.62219
B          4.79077        1.97127        0.97248
B          4.75796        0.28327        0.70330
B          5.07266       -1.34440        0.67990
B          5.90135       -0.44805        1.58982
B          5.80584        1.05874        1.68625
B         -1.61120       -0.91917       -0.93423
B          2.40426       -1.87942        0.46958
B         -0.48222        1.82878       -1.08724
B         -5.63717        1.11986        1.13273
B         -5.64875       -0.44108        1.17880
B         -5.25357       -1.92429        1.27478
B         -0.21106        0.05207       -1.02441
