45
isomer_1295.log	Energy: -113399.5815092
B         -2.51875        1.68540        0.71492
B         -2.44578        3.36066        0.19154
B         -1.01635        4.14872        0.06917
B          0.42052        3.43739        0.58796
B         -1.06228        0.94153        1.12910
B          1.68056        0.80303        0.83366
B          1.75328        4.16177       -0.22295
B         -3.86912        0.90156        0.27156
B          1.78476        2.52778        0.50052
B         -3.72844        2.55608       -0.14899
B          0.34972        4.75690       -0.31081
B          3.11307        3.29716       -0.24602
B          3.17415        1.70571        0.21699
B          4.48891        0.80091       -0.24615
B          0.27365       -1.71775        1.00350
B          1.65311       -2.47803        0.41546
B          3.03764       -1.70611        0.17033
B          4.48022       -0.81777       -0.26743
B          4.30373       -2.40751       -0.73580
B          2.93685       -3.27114       -0.35638
B          1.60631       -4.11959       -0.23799
B          0.24178       -3.36264        0.75203
B          0.21255       -4.63582       -0.29346
B         -2.47673       -3.15599        0.10098
B         -1.16741       -3.99758        0.09413
B         -2.48991       -1.50515        0.54988
B         -3.71614       -2.28926       -0.41051
B         -3.90801       -0.71582        0.21323
B         -1.29806       -2.73833        1.47931
B         -1.08286        2.60637        0.69789
B          3.14559       -0.00273        0.42919
B         -1.06530       -0.84818        0.92201
B          4.45639        2.44884       -0.60984
B         -4.89711        1.82241       -0.93737
B         -4.97760        0.12445       -0.75257
B         -4.89173       -1.53032       -1.10422
B         -5.89570       -0.56442       -1.84984
B         -5.88035        0.94312       -1.76009
B          1.66771       -0.78480        0.80664
B         -2.52164        0.16014        1.19046
B          0.41339        1.73165        1.06705
B          5.54701        1.51958       -1.19857
B          5.72973       -0.00062       -1.22220
B          5.44471       -1.56370       -1.27116
B         -1.00605       -2.22789       -0.22513
