45
isomer_1298.log	Energy: -113443.7184432
B         -2.87571       -0.88047       -1.61500
B         -3.00354       -3.30189       -0.68190
B         -1.91997       -4.03406        0.12436
B         -0.55129       -3.05128       -0.09725
B         -1.20136       -0.43994       -1.12317
B          1.48107       -0.93154       -0.80432
B          0.75334       -3.89933        0.80655
B         -3.85157       -0.19737       -0.34379
B          1.10210       -2.44805       -0.02064
B         -3.83103       -1.87342       -0.33381
B         -0.66078       -4.44161        0.75105
B          2.24137       -3.33388        0.81212
B          2.65437       -1.92462        0.07996
B          4.22487       -1.35956        0.36347
B          0.64728        1.74653       -1.01053
B          2.22358        2.28417       -0.68444
B          3.50548        1.25928       -0.53726
B          4.74719        0.11404       -0.23820
B          4.91121        1.78926        0.25758
B          3.72174        2.82341       -0.11183
B          2.48606        3.85498        0.10511
B          0.94711        3.36915       -0.51305
B          1.20980        4.59152        0.47848
B         -1.77289        3.60319        0.40564
B         -0.29030        4.21926        0.38349
B         -2.21300        2.23526       -0.49144
B         -3.19525        2.93847        0.70130
B         -3.68367        1.53444       -0.06879
B         -0.60903        2.70549       -0.37481
B         -1.65657       -2.14681       -1.06657
B          3.16961       -0.44874       -0.63148
B         -0.89802        1.16394       -1.08858
B          3.81414       -2.87527        1.00898
B         -4.63631       -1.11542        0.82781
B         -4.77687        0.60324        0.79844
B         -4.43522        2.16743        1.37706
B         -5.27536        1.17163        2.23235
B         -5.29767       -0.30868        2.02691
B          1.83978        0.60765       -0.85434
B         -3.17524       -2.37399       -1.85887
B         -0.08432       -1.59680       -0.91190
B          5.19991       -2.29992        1.21841
B          5.73629       -0.83995        0.99247
B          5.78452        0.67710        0.85462
B         -2.50585        0.66315       -1.14419
