45
isomer_0130.log	Energy: -112560.5041241
B         -2.60897        1.71913        0.41011
B         -2.59498        3.36119        0.04808
B         -1.18533        4.18980       -0.18235
B          0.26776        3.34730        0.36203
B         -1.15284        0.81970        0.70943
B          1.72174        0.83997        0.80178
B          1.66190        4.13628       -0.31488
B         -4.06995        0.85011        0.32354
B          1.64845        2.45058        0.25866
B         -4.00443        2.54684       -0.11447
B          0.23930        4.80549       -0.45031
B          3.09140        3.28536       -0.33528
B          3.11191        1.65772        0.21337
B          4.57045        0.84623       -0.28885
B          0.28001       -1.71268        0.83682
B          1.66204       -2.40485        0.20622
B          3.12104       -1.60302        0.17816
B          4.57498       -0.77271       -0.30633
B          4.41233       -2.32808       -0.56875
B          3.10961       -3.21852       -0.40552
B          1.68490       -4.07767       -0.40358
B          0.28640       -3.31131        0.29013
B          0.26606       -4.75176       -0.55352
B         -2.57623       -3.33445       -0.02423
B         -1.16198       -4.14998       -0.27241
B         -2.59940       -1.70070        0.37317
B         -3.99023       -2.52468       -0.16923
B         -4.06522       -0.83820        0.30531
B         -1.16734       -2.52272        0.53025
B         -1.18153        2.54558        0.58498
B          3.19862        0.12329        0.59365
B         -1.14831       -0.79979        0.69194
B          4.39907        2.40596       -0.51763
B         -5.32527        1.74391       -0.63025
B         -5.31837        0.11033       -0.41395
B         -5.31558       -1.71821       -0.66764
B         -6.48218       -0.76019       -1.26222
B         -6.48653        0.79244       -1.24546
B          1.72635       -0.80596        0.78401
B         -0.52265       -1.41413        2.10500
B          0.27036        1.73723        0.87408
B          5.91015        1.70146       -0.73596
B          6.11015       -0.01043       -0.81901
B          5.91723       -1.74079       -0.84374
B         -0.28488        0.48495        0.04484
