45
isomer_1301.log	Energy: -113478.6848653
B          2.53034        1.65008       -0.57157
B          2.49947        3.31104        0.04915
B          1.12729        4.09425        0.27061
B         -0.30967        3.38702       -0.35564
B          1.16172        0.90104       -1.02346
B         -1.77711        0.90197       -0.93998
B         -1.68933        4.14752        0.41915
B          3.94399        0.91766       -0.29070
B         -1.75224        2.55774       -0.43211
B          3.84168        2.49955        0.09974
B         -0.28135        4.69283        0.57308
B         -3.06251        3.29789        0.36341
B         -3.14870        1.75883       -0.22029
B         -4.49411        0.79991        0.21936
B         -0.18556       -1.58784       -0.38757
B         -1.66514       -2.46933       -0.36505
B         -3.12059       -1.69480       -0.40099
B         -4.58373       -0.83576       -0.16772
B         -4.39781       -2.45843        0.43552
B         -3.03411       -3.30381        0.05422
B         -1.66123       -4.12715        0.12042
B         -0.14533       -3.31262       -0.57581
B         -0.31116       -4.54527        0.53662
B          2.47568       -3.12738        0.42943
B          1.11211       -3.88596        0.48474
B          2.56791       -1.70322       -0.60915
B          3.83540       -2.31129        0.39533
B          3.94207       -0.82348       -0.24508
B          1.31456       -2.73427       -1.05945
B          1.17341        2.60300       -0.65049
B         -3.25777        0.06175       -0.67129
B          1.27490       -0.73629       -0.74672
B         -4.41866        2.46129        0.73388
B          5.23126        1.71995        0.49623
B          5.29324        0.06888        0.09254
B          5.22003       -1.52561        0.65893
B          6.32365       -0.60646        1.21342
B          6.32801        0.86840        1.12737
B         -1.67285       -0.74855       -0.71245
B          1.11237       -2.05813        0.55490
B         -0.34364        1.86448       -1.04434
B         -5.56046        1.52861        1.14077
B         -5.73232       -0.01677        1.05412
B         -5.45552       -1.53702        0.99508
B         -0.24820        0.05576       -1.04819
