45
isomer_1302.log	Energy: -113675.8838016
B         -2.50768        1.76008        0.48693
B         -2.42531        3.33572       -0.03969
B         -1.04492        4.15754       -0.12227
B          0.35338        3.38412        0.51472
B         -1.12855        0.84837        1.03976
B          1.78925        0.83023        0.91436
B          1.75077        4.14390       -0.24481
B         -3.95595        0.91225        0.21654
B          1.80396        2.53221        0.48990
B         -3.80812        2.53832       -0.29318
B          0.34476        4.74585       -0.35066
B          3.09428        3.27944       -0.26542
B          3.17456        1.67938        0.26101
B          4.53118        0.79505       -0.24107
B          0.31145       -1.82963        1.08516
B          1.72252       -2.55152        0.42828
B          3.12821       -1.73509        0.21980
B          4.54722       -0.89658       -0.14202
B          4.32437       -2.50160       -0.77048
B          3.00670       -3.34286       -0.27846
B          1.63934       -4.17072       -0.25785
B          0.26696       -3.40260        0.53905
B          0.21653       -4.74804       -0.35192
B         -2.51623       -3.30364       -0.03587
B         -1.15992       -4.14903       -0.10767
B         -2.56487       -1.72982        0.53228
B         -3.87099       -2.48388       -0.27530
B         -3.98496       -0.84393        0.22466
B         -1.18770       -2.57730        0.78943
B         -1.11765        2.59003        0.76368
B          3.29361       -0.01686        0.60964
B         -1.17167       -0.85118        1.06920
B          4.40846        2.44321       -0.74901
B         -5.05955        1.74103       -0.86487
B         -5.19529        0.04686       -0.52291
B         -5.10477       -1.64921       -0.84565
B         -6.10456       -0.70361       -1.60600
B         -6.08395        0.81690       -1.61287
B          1.71637       -0.84338        0.78252
B         -2.61009        0.01687        0.74625
B          0.37075        1.82435        1.11744
B          5.47526        1.51703       -1.30078
B          5.61988       -0.03502       -1.30474
B          5.37007       -1.57042       -1.33842
B          0.34287       -0.00283        1.09130
