45
isomer_1303.log	Energy: -113675.5275928
B          2.55192       -1.73386        0.51118
B          2.49388       -3.30128       -0.05836
B          1.13351       -4.14832       -0.11914
B         -0.28424       -3.39959        0.52723
B          1.16082       -0.84960        1.06130
B         -1.72670       -0.84166        0.81353
B         -1.66288       -4.16339       -0.26449
B          3.98193       -0.85983        0.22120
B         -1.74078       -2.55164        0.44997
B          3.85827       -2.49595       -0.28742
B         -0.24356       -4.74402       -0.36574
B         -3.02564       -3.32617       -0.27353
B         -3.13395       -1.72109        0.23041
B         -4.54770       -0.87683       -0.15391
B         -0.36164        1.82772        1.10949
B         -1.79143        2.53669        0.47239
B         -3.16928        1.68869        0.25948
B         -4.53585        0.81484       -0.22069
B         -4.39969        2.45541       -0.74739
B         -3.07862        3.28900       -0.27277
B         -1.73098        4.14547       -0.25992
B         -0.33805        3.38692        0.50614
B         -0.31983        4.74136       -0.36677
B          2.44419        3.32611       -0.04129
B          1.06642        4.15015       -0.13426
B          2.51886        1.75352        0.49628
B          3.82459        2.52715       -0.27884
B          3.96222        0.89633        0.22597
B          1.12910        2.58691        0.76653
B          1.17420       -2.58049        0.78105
B         -3.29554       -0.00891        0.61354
B          1.13460        0.85025        1.04808
B         -4.33967       -2.48653       -0.76439
B          5.09703       -1.66639       -0.85229
B          5.20054        0.02979       -0.51410
B          5.07854        1.72649       -0.84098
B          6.09238        0.80087       -1.60309
B          6.11428       -0.72225       -1.59173
B         -1.77067        0.83556        0.90233
B          2.61445        0.00407        0.74335
B         -0.32163       -1.83903        1.09973
B         -5.39464       -1.55939       -1.32328
B         -5.61334       -0.01896       -1.30789
B         -5.46381        1.53161       -1.30152
B         -0.34159       -0.00975        1.10460
