45
isomer_1305.log	Energy: -113478.3632667
B         -2.52402        1.65564        0.56394
B         -2.48735        3.31666       -0.06127
B         -1.11239        4.09896       -0.27484
B          0.32066        3.38706        0.35616
B         -1.15864        0.90583        1.02154
B          1.77867        0.89460        0.94504
B          1.70321        4.14759       -0.41039
B         -3.94128        0.92896        0.28799
B          1.76024        2.55463        0.44569
B         -3.83027        2.50744       -0.11372
B          0.29884        4.69721       -0.56799
B          3.07166        3.29197       -0.35241
B          3.15218        1.75066        0.22648
B          4.49668        0.79107       -0.21569
B          0.17833       -1.60690        0.44927
B          1.65692       -2.47703        0.36802
B          3.11405       -1.70184        0.39059
B          4.57835       -0.84652        0.15713
B          4.38659       -2.46290       -0.45693
B          3.02253       -3.30511       -0.07414
B          1.64875       -4.12858       -0.13502
B          0.13494       -3.32431        0.57910
B          0.29725       -4.53979       -0.55075
B         -2.48539       -3.11934       -0.42689
B         -1.12456       -3.87748       -0.48947
B         -2.57468       -1.70448        0.62418
B         -3.84356       -2.30004       -0.38503
B         -3.94204       -0.81158        0.26327
B         -1.33024       -2.74616        1.06759
B         -1.16511        2.60642        0.63971
B          3.25768        0.05150        0.67178
B         -1.28087       -0.72599        0.72904
B          4.42421        2.45417       -0.72513
B         -5.21977        1.72847       -0.51475
B         -5.28712        0.08020       -0.10260
B         -5.22407       -1.51732       -0.64826
B         -6.32109       -0.59878       -1.21767
B         -6.31612        0.87679       -1.14561
B          1.66843       -0.75573        0.72550
B         -1.11559       -2.05070       -0.53695
B          0.34802        1.86551        1.04588
B          5.56248        1.52068       -1.13827
B          5.72893       -0.02456       -1.06151
B          5.44740       -1.54388       -1.01178
B          0.24711        0.05700        1.05915
