45
isomer_1306.log	Energy: -113420.5833174
B          2.67577       -1.59995        0.72258
B          2.70484       -3.20094        0.06998
B          1.35496       -4.10607       -0.03724
B         -0.12069       -3.42598        0.57288
B          1.21836       -0.78701        1.01350
B         -1.47952       -0.81952        0.13684
B         -1.44313       -4.18217       -0.40614
B          3.97265       -0.69510        0.25486
B         -1.52595       -2.59347        0.16642
B          3.96124       -2.28643       -0.10889
B          0.01606       -4.69733       -0.42016
B         -2.81640       -3.37170       -0.50910
B         -2.92908       -1.73284       -0.07312
B         -4.44567       -1.01950       -0.07596
B         -0.32958        1.68463        0.76474
B         -1.85249        2.44039        0.58031
B         -3.20019        1.54391        0.53323
B         -4.54873        0.67447        0.04320
B         -4.57339        2.37603       -0.33340
B         -3.22020        3.18083        0.02815
B         -1.89240        4.07340       -0.12903
B         -0.41364        3.29161        0.24482
B         -0.50300        4.72682       -0.40396
B          2.37940        3.35410       -0.30002
B          0.93459        4.14132       -0.34225
B          2.50818        1.75228        0.27363
B          3.79993        2.59122       -0.39169
B          3.88129        0.97765       -0.01934
B          1.10756        2.55481        0.37169
B          1.31068       -2.52250        0.66122
B         -3.14979       -0.12277        0.59894
B          1.19387        0.79810        0.70044
B         -4.19897       -2.53849       -0.89831
B          5.35294       -1.44954       -0.45786
B          5.31771        0.20563       -0.10838
B          5.18234        1.80650       -0.76218
B          6.30353        0.89066       -1.24999
B          6.44068       -0.58956       -1.05303
B         -1.68143        0.68860        1.09543
B         -0.17412        0.14251       -0.10857
B         -0.22090       -1.76473        0.91988
B         -5.33616       -1.62213       -1.25806
B         -5.66914       -0.09817       -1.03140
B         -5.61720        1.44168       -0.88664
B         -0.27483       -0.11124        1.61196
