45
isomer_0131.log	Energy: -113366.2089630
B          2.65190       -1.75763        0.83112
B          2.60374       -3.28764       -0.45735
B          1.24401       -4.03606       -0.62086
B         -0.17633       -3.31454        0.15338
B          1.32607       -0.61419        1.22154
B         -1.59943       -0.80907        0.90388
B         -1.56011       -4.05108       -0.44000
B          3.85724       -0.81854        0.22651
B         -1.62437       -2.52765        0.59018
B          3.77459       -2.35134       -0.38128
B         -0.20983       -4.59707       -0.78998
B         -2.92974       -3.24130       -0.22797
B         -3.03640       -1.71134        0.29381
B         -4.44899       -0.85012       -0.13939
B         -0.34510        1.88515        0.96208
B         -1.77174        2.56086        0.46641
B         -3.14379        1.69896        0.22769
B         -4.56923        0.79242       -0.03497
B         -4.40144        2.42062       -0.69226
B         -3.09565        3.28003       -0.31708
B         -1.74405        4.16920       -0.38856
B         -0.36058        3.42429        0.35519
B         -0.35532        4.75963       -0.52970
B          2.47193        3.45354       -0.04510
B          1.08871        4.21099       -0.23747
B          2.50906        1.75113        0.54786
B          3.78274        2.59885       -0.15653
B          3.87886        0.99336        0.27923
B          1.14122        2.65637        0.53970
B          1.36222       -2.80087        0.51672
B         -3.22140       -0.01607        0.62138
B          1.17418        0.96940        0.96587
B         -4.31518       -2.48559       -0.63831
B          5.04989       -1.48087       -0.84507
B          5.02320        0.12897       -0.44271
B          5.08115        1.79437       -0.67976
B          6.09319        0.93044       -1.43205
B          6.07588       -0.54800       -1.52853
B         -1.71718        0.83606        0.80357
B          1.39231       -1.98716        1.89829
B         -0.15856       -1.83481        1.16198
B         -5.44893       -1.63220       -1.13432
B         -5.66310       -0.08894       -1.15379
B         -5.47033        1.44898       -1.18816
B         -0.21527        0.07847        0.93482
