45
isomer_1311.log	Energy: -113444.7904239
B          2.62873       -1.59171        0.51522
B          2.64883       -3.28402        0.13413
B          1.30530       -4.08418        0.04550
B         -0.21916       -3.23790        0.53181
B          1.20998       -0.74972        0.73247
B         -1.63447       -0.87137        0.77273
B         -1.45209       -4.07445       -0.40967
B          3.94780       -0.77518        0.16680
B         -1.40018       -2.29891       -0.29709
B          3.96142       -2.40407       -0.06999
B         -0.07360       -4.65963       -0.27562
B         -2.81780       -3.24251       -0.57096
B         -2.99261       -1.75381        0.08803
B         -4.50558       -0.94658        0.01003
B         -0.32982        1.79851        1.05835
B         -1.76195        2.49453        0.40750
B         -3.16007        1.67940        0.36535
B         -4.46965        0.72137       -0.14246
B         -4.47305        2.39388       -0.53721
B         -3.11020        3.25106       -0.20210
B         -1.75699        4.10240       -0.25412
B         -0.32887        3.39373        0.47837
B         -0.34444        4.69293       -0.44438
B          2.46333        3.41934       -0.15698
B          1.08699        4.15907       -0.22717
B          2.48556        1.70971        0.35018
B          3.79342        2.59809       -0.30100
B          3.90449        0.98548        0.05541
B          1.15342        2.58358        0.57752
B          1.24689       -2.46848        0.74162
B         -3.20605       -0.08264        0.66267
B          1.17093        0.89496        0.74000
B         -4.22057       -2.50036       -0.80817
B          5.29806       -1.54432       -0.56824
B          5.24178        0.13045       -0.26996
B          5.16568        1.76751       -0.72171
B          6.29961        0.85339       -1.27747
B          6.37194       -0.64208       -1.18594
B         -1.78140        0.87350        1.03799
B         -0.25910        0.00869        1.16404
B         -0.26545       -1.78203        1.43261
B         -5.42216       -1.60515       -1.11977
B         -5.70345       -0.10404       -1.01617
B         -5.58457        1.47062       -0.97833
B         -0.11087       -1.27907       -0.23384
