45
isomer_1313.log	Energy: -113587.7013813
B          2.18133       -1.65402       -0.00332
B          2.65887       -3.31951        0.13731
B          1.75579       -4.35781        0.63432
B         -0.35216       -3.25487        1.57946
B          1.88905        0.09636        0.37059
B         -1.04782       -0.76928       -0.03881
B         -1.20332       -4.20230        0.42396
B          3.46363       -0.63396       -0.07825
B         -0.95357       -2.46428        0.16204
B          3.70428       -2.23407       -0.43860
B          0.27847       -4.55789        0.72118
B         -2.37862       -3.45145       -0.26642
B         -2.40156       -1.86249       -0.53676
B         -3.90269       -1.08914       -0.84031
B         -0.48135        1.78828        1.32450
B         -1.95239        2.40952        0.75517
B         -2.99950        1.51800       -0.13474
B         -4.04108        0.56611       -1.07619
B         -4.55519        2.13627       -0.50365
B         -3.32621        3.11157        0.00891
B         -2.10251        4.10155        0.22940
B         -0.63884        3.47897        0.96600
B         -0.77313        4.85277        0.17372
B          2.07482        3.57809       -0.00056
B          0.68632        4.34552        0.24405
B          2.18063        1.92066        0.43896
B          3.35334        2.77599       -0.48114
B          3.33533        1.05318       -0.32749
B          0.94623        2.81707        1.01901
B          1.00696       -2.82303        0.61174
B         -2.54971       -0.09903       -0.59214
B          1.10558        1.15300        1.38319
B         -3.78956       -2.78319       -0.76173
B          4.98932       -1.36985       -0.76079
B          4.79954        0.32374       -0.55467
B          4.56459        1.94393       -1.11356
B          5.75474        1.03235       -1.63462
B          6.03698       -0.40901       -1.33712
B         -1.53421        0.76101        0.53932
B          0.59561       -1.20284       -0.04087
B         -0.17611       -1.65454        1.54514
B         -5.13363       -2.03826       -1.06831
B         -5.49233       -0.53553       -1.07590
B         -5.53688        1.03928       -0.84970
B         -0.03904       -0.03689        1.24768
