45
isomer_1314.log	Energy: -112529.5981400
B         -2.50844       -1.62198       -0.52565
B         -2.52558       -3.26099       -0.15022
B         -1.13266       -4.10957        0.10763
B          0.34131       -3.29442       -0.42205
B         -1.03411       -0.74791       -0.81073
B          1.84084       -0.81383       -0.86054
B          1.71282       -4.09943        0.28168
B         -3.95667       -0.72955       -0.46764
B          1.73428       -2.41854       -0.30557
B         -3.92426       -2.42340       -0.01504
B          0.27803       -4.74520        0.40152
B          3.15508       -3.27080        0.31628
B          3.20922       -1.64829       -0.24512
B          4.67286       -0.85554        0.27198
B          0.44013        1.76064       -0.93741
B          1.82352        2.43635       -0.29211
B          3.26915        1.61209       -0.23608
B          4.70261        0.76322        0.27647
B          4.56064        2.32307        0.52391
B          3.27462        3.23236        0.33431
B          1.86379        4.11361        0.30445
B          0.46369        3.36346       -0.40359
B          0.45369        4.81100        0.42802
B         -2.40252        3.43390       -0.13165
B         -0.97938        4.22928        0.13075
B         -2.44558        1.79747       -0.51617
B         -3.83105        2.64755       -0.00098
B         -3.92564        0.95857       -0.46296
B         -0.99863        2.59570       -0.65874
B         -1.09178       -2.47204       -0.67280
B          3.32561       -0.11861       -0.63644
B         -1.00435        0.87141       -0.80624
B          4.47363       -2.41045        0.51078
B         -5.23970       -1.59570        0.47473
B         -5.20393        0.03573        0.24538
B         -5.17607        1.86604        0.48433
B         -6.36616        0.93133        1.06936
B         -6.39470       -0.62113        1.06506
B          1.87109        0.83191       -0.85597
B         -4.10687       -0.08182        1.28396
B          0.37672       -1.68889       -0.94697
B          5.99225       -1.72785        0.74567
B          6.21794       -0.01867        0.81785
B          6.05193        1.71464        0.82578
B         -1.85737       -1.55471        0.46079
