45
isomer_1317.log	Energy: -112583.6056643
B          2.61587       -1.61325        0.37266
B          2.61856       -3.24587       -0.03001
B          1.21730       -4.08359       -0.27800
B         -0.24342       -3.27051        0.29017
B          1.15093       -0.73720        0.69727
B         -1.72305       -0.79060        0.79509
B         -1.63064       -4.05736       -0.40322
B          4.06728       -0.72672        0.30466
B         -1.63384       -2.38636        0.21198
B          4.01885       -2.41266       -0.17521
B         -0.20130       -4.70770       -0.55820
B         -3.06919       -3.22159       -0.39950
B         -3.10579       -1.60838        0.18944
B         -4.57408       -0.80037       -0.28942
B         -0.30858        1.77572        0.89050
B         -1.69940        2.46845        0.28017
B         -3.14982        1.65195        0.23524
B         -4.59594        0.81836       -0.26668
B         -4.45052        2.38142       -0.49073
B         -3.15701        3.28146       -0.30815
B         -1.74155        4.15554       -0.28785
B         -0.33332        3.38726        0.38370
B         -0.33034        4.84833       -0.42396
B          2.52816        3.44890        0.06404
B          1.10470        4.25512       -0.16086
B          2.56970        1.80614        0.42070
B          3.95037        2.65821       -0.10398
B          4.04448        0.96137        0.32838
B          1.12932        2.60860        0.60113
B          1.19775       -2.45905        0.52994
B         -3.20797       -0.08487        0.60789
B          1.12906        0.88209        0.72002
B         -4.38660       -2.35202       -0.55722
B          5.32983       -1.58306       -0.67365
B          5.30599        0.04449       -0.41683
B          5.28308        1.87862       -0.62503
B          6.45844        0.94823       -1.24565
B          6.47941       -0.60420       -1.26746
B         -1.74527        0.85511        0.81820
B          1.07268       -1.67912        2.17637
B         -0.26200       -1.67375        0.84205
B         -5.90562       -1.65858       -0.75484
B         -6.12409        0.05260       -0.79493
B         -5.94971        1.78501       -0.77708
B          0.25728       -1.19614       -0.47111
