45
isomer_0132.log	Energy: -113636.7398745
B         -2.52069       -0.81251       -0.29219
B         -2.18544       -2.67040       -0.30927
B         -1.02587       -3.31632        0.68378
B          0.74730       -3.44050       -0.36394
B         -0.90849       -1.36671       -0.50298
B          1.90080       -0.83376       -1.29279
B          1.77919       -3.39881        1.01495
B         -4.06299       -0.46234       -0.81680
B          1.81228       -1.95151        0.06267
B         -3.65875       -2.04989       -0.38009
B          0.30928       -3.74401        1.33749
B          3.22649       -2.57842        0.78473
B          3.38235       -1.34547       -0.29856
B          4.78082       -0.17964       -0.12979
B          0.13533        1.15185        0.20808
B          1.44491        2.32895       -0.16889
B          2.92586        1.75762       -0.50127
B          4.44785        1.26325       -1.02403
B          4.26869        2.67671       -0.05042
B          2.81024        3.33022        0.09214
B          1.31051        3.91449        0.39104
B          0.02333        2.71617        0.67406
B         -0.14213        4.29475        0.45577
B         -2.84978        2.73267        0.36736
B         -1.52672        3.54588        0.42302
B         -2.95770        0.99185       -0.27225
B         -4.28973        2.17424        0.34243
B         -4.51059        1.12676       -0.85925
B         -1.46237        1.92901        0.09034
B         -0.69851       -2.97593       -1.01471
B          3.29907        0.13781       -1.13867
B         -1.32506        0.27225       -0.22659
B          4.60102       -1.85531        0.68708
B         -5.07145       -1.59633        0.11213
B         -5.62415       -0.02127       -0.33986
B         -5.72716        1.54655        0.37983
B         -6.79120        0.47309        0.71504
B         -6.39427       -0.95477        0.70643
B          1.62264        0.68701       -0.59903
B          0.22681       -2.08941        0.74449
B          0.63763       -1.91824       -1.29014
B          5.88158       -1.00910        0.78743
B          6.19718        0.38289        0.58937
B          5.43789        1.64789        0.19907
B          0.52401       -0.51127        0.02279
