45
isomer_1320.log	Energy: -113340.3233101
B         -2.66740        1.64538        0.52546
B         -2.60084        3.24459       -0.07542
B         -1.22756        4.07335       -0.25312
B          0.21310        3.32613        0.33685
B         -1.26662        0.72600        0.87567
B          1.70310        0.83717        0.70205
B          1.58851        4.14814       -0.35094
B         -4.04263        0.85272        0.20922
B          1.67330        2.53247        0.40020
B         -4.02362        2.47852       -0.10252
B          0.17032        4.68652       -0.50380
B          3.00499        3.35536       -0.26749
B          3.14179        1.80279        0.23800
B          4.62311        0.94932        0.13033
B          0.37667       -1.75408        1.34321
B          1.72734       -2.51565        0.45501
B          3.11013       -1.63678        0.18920
B          4.47997       -0.67437       -0.25121
B          4.48106       -2.30141       -0.70908
B          3.04893       -3.09593       -0.45842
B          1.66045       -3.77710       -0.77992
B          0.34456       -3.56900        0.40611
B          0.26759       -4.12554       -1.17033
B         -2.45374       -2.99175       -0.44730
B         -1.05610       -3.65676       -0.72069
B         -2.59493       -1.59504        0.47141
B         -3.79216       -2.24096       -0.52677
B         -3.99863       -0.79365        0.19767
B         -1.29341       -2.68445        0.81878
B         -1.25736        2.44970        0.40972
B          3.25180        0.08843        0.59862
B         -1.18669       -0.86835        0.96014
B          4.41518        2.59072       -0.54306
B         -5.35748        1.72767       -0.50744
B         -5.45157        0.03587       -0.08568
B         -5.27587       -1.52085       -0.71038
B         -6.45365       -0.69581       -1.20051
B         -6.38452        0.78683       -1.20287
B          1.74471       -0.79016        0.91683
B         -0.12896       -3.13888        1.82667
B          0.24957        1.72693        0.81709
B          5.54237        1.66373       -0.97764
B          5.81448        0.15198       -0.97797
B          5.65484       -1.41603       -1.03436
B          0.22587       -0.03778        1.02871
