45
isomer_1321.log	Energy: -113251.9633504
B         -2.29826        1.75428        0.18517
B         -2.37841        3.44638        0.05280
B         -0.98967        4.25712        0.00531
B          0.43550        3.47677        0.56524
B         -0.85146        0.92450        0.72721
B          1.66773        0.79745        0.87270
B          1.83364        4.17835       -0.11962
B         -3.77381        0.99081        0.04441
B          1.85054        2.52150        0.56159
B         -3.71160        2.63487       -0.21751
B          0.45576        4.84256       -0.20600
B          3.16954        3.26214       -0.15105
B          3.15527        1.65715        0.25298
B          4.50163        0.74831       -0.18594
B         -0.01912       -1.32640        0.34290
B          1.70046       -2.51057        0.40492
B          3.06995       -1.72131        0.16587
B          4.47527       -0.91592       -0.10661
B          4.29086       -2.46860       -0.79986
B          2.91480       -3.30124       -0.35826
B          1.55329       -4.11398       -0.19404
B          0.21213       -3.46545        0.91307
B          0.11932       -4.65465       -0.17053
B         -2.63477       -3.31191        0.01471
B         -1.31100       -4.20977        0.04454
B         -2.61044       -1.59037        0.00463
B         -4.04789       -2.37507       -0.15529
B         -3.90657       -0.73654        0.19669
B         -1.18592       -2.58739        0.29678
B         -1.04239        2.68076        0.70069
B          3.14156       -0.03644        0.53983
B         -2.01016        0.04470        0.27110
B          4.50055        2.43242       -0.58206
B         -5.06127        1.85362       -0.69591
B         -5.15018        0.20051       -0.34731
B         -5.36310       -1.51293       -0.43750
B         -6.46635       -0.52037       -0.96437
B         -6.30042        0.95973       -1.15203
B          1.53178       -0.87094        0.97824
B         -1.17935       -1.04033       -0.52500
B          0.41792        1.80776        1.07184
B          5.60064        1.49373       -1.07579
B          5.70489       -0.05169       -1.14231
B          5.40514       -1.56800       -1.26057
B          0.58401       -2.07555        1.63432
