45
isomer_1326.log	Energy: -112800.3711623
B          2.65165        1.73874       -0.40921
B          2.56751        3.39672       -0.02282
B          1.14435        4.22218        0.19325
B         -0.29730        3.42155       -0.36187
B          1.30539        0.78827       -0.73504
B         -1.82997        0.75182       -0.82859
B         -1.70271        4.16754        0.32725
B          4.09217        0.89906       -0.30722
B         -1.73174        2.51658       -0.24854
B          3.97061        2.56388        0.14068
B         -0.28174        4.79092        0.45359
B         -3.12503        3.30992        0.35682
B         -3.19085        1.65898       -0.19301
B         -4.61679        0.80054        0.33309
B         -0.37550       -1.70828       -0.88855
B         -1.73538       -2.43871       -0.21198
B         -3.16198       -1.66136       -0.15642
B         -4.60309       -0.83594        0.34811
B         -4.43457       -2.40812        0.64426
B         -3.07768       -3.27495        0.42917
B         -1.60961       -4.09214        0.39676
B         -0.19494       -3.37470       -0.33221
B         -0.11518       -4.69545        0.52051
B          2.74136       -3.33969        0.01915
B          1.35454       -4.16231        0.26329
B          2.77229       -1.66702       -0.40435
B          4.11582       -2.45303        0.18211
B          4.14276       -0.81207       -0.29272
B          1.38241       -2.58338       -0.55444
B          1.23687        2.61309       -0.58101
B         -3.27383        0.05596       -0.57194
B          1.33057       -0.70074       -0.75747
B         -4.50239        2.40780        0.57879
B          5.26315        1.80784        0.67789
B          5.31120        0.15788        0.45702
B          5.35130       -1.61815        0.70434
B          6.42468       -0.63253        1.32261
B          6.41438        0.86508        1.32186
B         -1.82430       -0.86280       -0.79589
B          0.44791       -1.94225       -1.41879
B         -0.27431        1.84797       -0.90057
B         -5.88142        1.58763        0.79568
B         -6.04595       -0.06645        0.88022
B         -5.84400       -1.69053        0.90819
B         -0.29069        0.65065       -1.28200
