45
isomer_1327.log	Energy: -113474.1084023
B          2.54871       -1.63209        0.55666
B          2.85028       -3.14855       -0.58825
B          1.53464       -4.00943       -0.64919
B          0.17093       -3.22512        0.39968
B          1.01017       -0.61118        1.03305
B         -1.70118       -0.82465        0.91852
B         -1.25635       -3.97736       -0.36670
B          3.84431       -0.57635        0.16740
B         -1.48176       -2.47832        0.39957
B          3.94963       -2.12141       -0.38803
B          0.11344       -4.45704       -0.68055
B         -2.73042       -3.33352       -0.31381
B         -2.96723       -1.80319        0.17621
B         -4.46166       -1.05872       -0.19648
B         -0.56380        1.77033        0.91006
B         -2.05142        2.46062        0.46499
B         -3.41625        1.55254        0.34128
B         -4.76186        0.57317        0.09192
B         -4.72157        2.18886       -0.57444
B         -3.43738        3.13223       -0.20158
B         -2.13796        4.05656       -0.28742
B         -0.66367        3.42275        0.42569
B         -0.76724        4.72718       -0.49460
B          2.13746        3.50853       -0.17152
B          0.66939        4.24695       -0.25409
B          2.30348        1.97805        0.42799
B          3.58119        2.81627       -0.31825
B          3.72526        1.14755        0.01482
B          0.83304        2.67945        0.53050
B          1.99409       -3.29816        0.76965
B         -3.28949       -0.14631        0.65736
B          0.95042        0.99214        0.92841
B         -4.18624       -2.67589       -0.68709
B          5.29792       -1.23092       -0.53070
B          5.22439        0.43282       -0.14980
B          4.93782        2.06489       -0.72507
B          6.10901        1.17460       -1.28503
B          6.36248       -0.29186       -1.08634
B         -1.85451        0.78382        0.79771
B          2.36337        0.19569        0.53412
B         -0.30374       -1.60659        1.20236
B         -5.45204       -1.92079       -1.09467
B         -5.78753       -0.40397       -1.07188
B         -5.68050        1.13916       -1.10014
B          1.16236       -2.21272        1.46769
