45
isomer_1328.log	Energy: -113340.3300985
B          2.59755       -1.57804        0.46155
B          2.45807       -2.99362       -0.43001
B          1.06670       -3.69176       -0.65437
B         -0.33800       -3.57460        0.47455
B          1.18619       -0.86813        0.97200
B         -1.74354       -0.79879        0.91573
B         -1.63580       -3.81810       -0.73377
B          3.99470       -0.77549        0.17261
B         -1.72622       -2.51109        0.43709
B          3.78727       -2.23168       -0.53834
B         -0.24635       -4.19945       -1.08467
B         -3.02723       -3.10146       -0.48374
B         -3.10093       -1.63659        0.15805
B         -4.46474       -0.67829       -0.29806
B         -0.25814        1.72628        0.84266
B         -1.68299        2.53008        0.42965
B         -3.14670        1.79697        0.24288
B         -4.62275        0.93829        0.10557
B         -4.41484        2.58670       -0.54554
B         -3.01316        3.35495       -0.24518
B         -1.60281        4.15387       -0.31181
B         -0.22585        3.32768        0.37146
B         -0.18798        4.69901       -0.45626
B          2.58320        3.25309       -0.05884
B          1.20869        4.08590       -0.21536
B          2.65467        1.64656        0.52553
B          4.00491        2.49421       -0.12399
B          4.02751        0.87063        0.15881
B          1.24723        2.45621        0.43737
B          1.31535       -2.67591        0.84910
B         -3.25316        0.07860        0.58194
B          1.26205        0.72413        0.88866
B         -4.45379       -2.30281       -0.76582
B          5.26929       -1.50470       -0.73946
B          5.43860        0.05391       -0.12601
B          5.33497        1.74809       -0.55259
B          6.35975        0.80613       -1.25252
B          6.43863       -0.67580       -1.24272
B         -1.70972        0.83042        0.71573
B          0.17927       -3.12327        1.87710
B         -0.37672       -1.76531        1.35522
B         -5.62584       -1.41968       -1.10227
B         -5.79638        0.14718       -1.02914
B         -5.53222        1.65887       -1.00690
B         -0.22873       -0.04317        1.02409
