45
isomer_1329.log	Energy: -112990.0578025
B         -2.62420       -1.65492       -0.48759
B         -2.60601       -3.29875       -0.09916
B         -1.19851       -4.13938        0.14124
B          0.25908       -3.33499       -0.39699
B         -1.20272       -0.77996       -0.77723
B          1.76363       -0.80143       -0.84012
B          1.64152       -4.12022        0.29608
B         -4.02941       -0.77399       -0.40254
B          1.67807       -2.45057       -0.28618
B         -3.98864       -2.45384        0.05278
B          0.20504       -4.74092        0.41986
B          3.07156       -3.28700        0.32283
B          3.13211       -1.66340       -0.23138
B          4.59053       -0.84511        0.26698
B          0.33035        1.77740       -0.90753
B          1.72482        2.45799       -0.27250
B          3.17062        1.63618       -0.22430
B          4.60481        0.79127        0.27026
B          4.46938        2.36213        0.53326
B          3.14637        3.25314        0.33985
B          1.73549        4.12374        0.31851
B          0.34130        3.37417       -0.37487
B          0.32141        4.78006        0.44091
B         -2.51820        3.39936       -0.08354
B         -1.09620        4.21201        0.16376
B         -2.55604        1.76587       -0.47055
B         -3.92726        2.57554        0.05950
B         -4.00902        0.92174       -0.39640
B         -1.12567        2.59759       -0.61943
B         -1.19718       -2.52164       -0.63142
B          3.23770       -0.09618       -0.62383
B         -1.11737        0.90277       -0.76243
B          4.42663       -2.42419        0.52391
B         -5.27662       -1.64241        0.55722
B         -5.25062       -0.00192        0.32471
B         -5.22764        1.79183        0.55681
B         -6.37419        0.85979        1.14665
B         -6.41183       -0.66851        1.15483
B          1.77811        0.84806       -0.83749
B         -2.00419       -0.77700        1.21068
B          0.31566       -1.73595       -0.92605
B          5.87542       -1.66676        0.72561
B          6.07182        0.00356        0.78641
B          5.90751        1.66805        0.79638
B         -0.05741       -0.22320       -0.75749
