45
isomer_0133.log	Energy: -113434.0433886
B          2.46384        1.77497       -0.49569
B          2.40582        3.45631        0.09860
B          1.03806        4.21576        0.25186
B         -0.40474        3.40232       -0.28905
B          1.15295        0.96241       -1.01463
B         -1.77172        0.86327       -0.70997
B         -1.81024        4.14043        0.41844
B          3.81904        1.03360       -0.17166
B         -1.81978        2.51607       -0.29700
B          3.78791        2.67364        0.10973
B         -0.41068        4.76327        0.53294
B         -3.17856        3.27069        0.35276
B         -3.22770        1.69120       -0.20701
B         -4.63900        0.74558       -0.05062
B         -0.30065       -1.67158       -1.29535
B         -1.57560       -2.49990       -0.52479
B         -3.04371       -1.72947       -0.35318
B         -4.41689       -0.89339        0.19606
B         -4.28158       -2.54106        0.61630
B         -2.85201       -3.26225        0.18861
B         -1.41465       -3.96868        0.30780
B          0.07990       -3.25226       -0.36509
B         -0.08365       -4.47120        0.73536
B          2.66600       -3.20116        0.76626
B          1.32566       -4.00771        0.83812
B          2.44469       -1.65549       -0.45712
B          3.75727       -2.17529        0.54469
B          3.79836       -0.73072       -0.15245
B          1.84926       -3.34319       -0.59066
B          1.10167        2.65368       -0.59732
B         -3.28095       -0.03478       -0.71114
B          1.22953       -0.63646       -0.96854
B         -4.48446        2.38037        0.68477
B          5.14216        1.89472        0.50626
B          5.16953        0.20601        0.15616
B          5.17558       -1.36876        0.69149
B          6.30274       -0.47831        1.16796
B          6.22021        1.00883        1.15000
B         -1.72351       -0.79733       -1.05904
B          1.12698       -2.31270       -1.47810
B         -0.38928        1.84250       -0.88811
B         -5.51474        1.36003        1.13952
B         -5.69674       -0.17196        1.09513
B         -5.44953       -1.72280        1.08193
B         -0.28679        0.07076       -0.95420
