45
isomer_1330.log	Energy: -113675.8854576
B          2.56316       -1.73038        0.53104
B          2.51378       -3.30375       -0.03715
B          1.15701       -4.14913       -0.10908
B         -0.26883       -3.40250        0.53833
B          1.17053       -0.85113        1.06972
B         -1.71748       -0.84300        0.78592
B         -1.64181       -4.17002       -0.25840
B          3.98424       -0.84544        0.22512
B         -1.72413       -2.55119        0.43045
B          3.86951       -2.48508       -0.27595
B         -0.21959       -4.74792       -0.35294
B         -3.00862       -3.34120       -0.27787
B         -3.12914       -1.73381        0.22082
B         -4.54732       -0.89429       -0.14376
B         -0.36934        1.82530        1.11775
B         -1.80193        2.53276        0.48828
B         -3.17300        1.68021        0.25993
B         -4.53144        0.79742       -0.23909
B         -4.40683        2.44429       -0.74970
B         -3.09183        3.28037       -0.26668
B         -1.74817        4.14430       -0.24606
B         -0.35098        3.38473        0.51440
B         -0.34170        4.74584       -0.35187
B          2.42747        3.33491       -0.03936
B          1.04764        4.15708       -0.12274
B          2.50875        1.75957        0.48819
B          3.80948        2.53717       -0.29266
B          3.95630        0.91063        0.21611
B          1.11927        2.59020        0.76582
B          1.18630       -2.57800        0.78902
B         -3.29332       -0.01588        0.60923
B          1.12956        0.84872        1.04162
B         -4.32619       -2.49977       -0.76982
B          5.10419       -1.65162       -0.84541
B          5.19465        0.04460       -0.52366
B          5.06015        1.73886       -0.86496
B          6.08409        0.81417       -1.61303
B          6.10449       -0.70648       -1.60585
B         -1.78691        0.83078        0.91245
B          2.60972        0.01599        0.74642
B         -0.31270       -1.83025        1.08609
B         -5.37250       -1.56944       -1.33771
B         -5.62009       -0.03349       -1.30432
B         -5.47380        1.51859       -1.30126
B         -0.34264       -0.00270        1.09262
