45
isomer_1331.log	Energy: -113259.9855959
B         -2.60502        1.66024        0.64937
B         -2.50361        3.30825        0.10761
B         -1.13501        4.11674       -0.01271
B          0.31727        3.41465        0.55951
B         -1.21947        0.86436        1.13717
B          1.67171        0.90482        0.58175
B          1.70803        4.14894       -0.26584
B         -4.02666        0.91070        0.28278
B          1.74822        2.54992        0.30146
B         -3.87227        2.51338       -0.11418
B          0.28229        4.70869       -0.34176
B          3.12813        3.33214       -0.24900
B          3.16292        1.71179        0.11751
B          4.56030        0.84044       -0.20614
B          0.25106       -1.64310        0.87908
B          1.63204       -2.49168        0.17492
B          3.07841       -1.69077        0.08185
B          4.48887       -0.82613       -0.25919
B          4.43484       -2.46013       -0.71030
B          2.98430       -3.28197       -0.38580
B          1.59472       -4.07598       -0.43667
B          0.26059       -3.41383        0.61056
B          0.13193       -4.55738       -0.54097
B         -2.63461       -3.14285       -0.15305
B         -1.24227       -3.95111       -0.06777
B         -2.74868       -1.51905        0.47094
B         -3.94469       -2.25516       -0.49817
B         -4.09910       -0.74932        0.20771
B         -1.43214       -2.45841        0.76631
B         -1.21167        2.58192        0.77329
B          3.22346        0.04569        0.42390
B         -1.28209       -0.75026        0.97557
B          4.55594        2.52719       -0.56118
B         -5.11634        1.81408       -0.77528
B         -5.27379        0.14338       -0.56755
B         -5.23922       -1.51900       -0.98115
B         -6.27127       -0.54610       -1.63926
B         -6.17509        0.94093       -1.59941
B          1.65605       -0.78825        0.51507
B         -0.39945       -2.81505        1.94103
B          0.33610        1.79497        1.06683
B          5.64107        1.57682       -1.08716
B          5.79333        0.01249       -1.12510
B          5.55027       -1.55036       -1.18582
B          0.24060        0.06337        1.13925
