45
isomer_1332.log	Energy: -112402.1800231
B          2.47524        1.72185       -0.56129
B          2.46005        3.35794       -0.17352
B          1.05544        4.17549        0.09079
B         -0.39763        3.34177       -0.43412
B          1.02364        0.82891       -0.84759
B         -1.84228        0.83410       -0.87808
B         -1.77715        4.11381        0.27801
B          3.93499        0.86728       -0.50825
B         -1.77169        2.44273       -0.31586
B          3.85615        2.54998       -0.04806
B         -0.35467        4.77434        0.39224
B         -3.19655        3.26112        0.31786
B         -3.22496        1.64162       -0.24759
B         -4.66690        0.81351        0.27506
B         -0.39258       -1.69578       -0.97211
B         -1.75352       -2.41007       -0.31526
B         -3.21191       -1.62126       -0.24714
B         -4.65634       -0.80727        0.27460
B         -4.48409       -2.36727        0.52504
B         -3.16739       -3.24086        0.32064
B         -1.74480       -4.08181        0.28093
B         -0.37108       -3.30026       -0.43628
B         -0.31893       -4.73109        0.38930
B          2.49783       -3.30622       -0.18547
B          1.08948       -4.12330        0.08448
B          2.51633       -1.67950       -0.58177
B          3.90668       -2.49422       -0.05781
B          3.95260       -0.81519       -0.51515
B          1.06798       -2.49490       -0.70280
B          1.04625        2.54690       -0.69643
B         -3.30984        0.10328       -0.64239
B          1.03081       -0.76915       -0.85185
B         -4.50909        2.37973        0.52345
B          5.18579        1.75573        0.43985
B          5.19327        0.12633        0.20280
B          5.21783       -1.68505        0.42779
B          6.36228       -0.73579        1.02037
B          6.35570        0.81325        1.02712
B         -1.83636       -0.81005       -0.87779
B          3.26740        0.27385        2.38730
B         -0.40237        1.73730       -0.96893
B         -5.98591        1.63814        0.75926
B         -6.16360       -0.05373        0.82422
B         -5.96320       -1.75786        0.82829
B          2.00711       -1.11831        0.39616
