45
isomer_1334.log	Energy: -111781.8976804
B          2.60903       -1.59595        0.38105
B          2.60923       -3.22674       -0.02901
B          1.20693       -4.05939       -0.28791
B         -0.25440       -3.24479        0.27652
B          1.14490       -0.71727        0.70219
B         -1.72968       -0.76306        0.78517
B         -1.64026       -4.02461       -0.42748
B          4.06323       -0.71320        0.32445
B         -1.64194       -2.35641        0.19528
B          4.01255       -2.39680       -0.16332
B         -0.21196       -4.67824       -0.57815
B         -3.07648       -3.18483       -0.42726
B         -3.11159       -1.57421        0.16881
B         -4.57517       -0.75992       -0.31383
B         -0.30858        1.79882        0.89943
B         -1.69434        2.49821        0.28520
B         -3.14678        1.68599        0.22920
B         -4.59265        0.85875       -0.28384
B         -4.44174        2.42238       -0.50005
B         -3.14667        3.31796       -0.30682
B         -1.72891        4.18797       -0.27536
B         -0.32626        3.41271        0.39983
B         -0.31510        4.87741       -0.40116
B          2.53697        3.46777        0.09498
B          1.11692        4.27899       -0.13347
B          2.57212        1.82330        0.44438
B          3.95782        2.67386       -0.06940
B          4.04501        0.97483        0.35571
B          1.13309        2.62897        0.62114
B          1.18779       -2.43848        0.52728
B         -3.21166       -0.05233        0.59365
B          1.12742        0.90195        0.73218
B         -4.39065       -2.31086       -0.58772
B          5.32835       -1.56863       -0.65133
B          5.30774        0.05780       -0.38724
B          5.29099        1.89291       -0.58721
B          6.46690        0.96204       -1.20608
B          6.48366       -0.59033       -1.23483
B         -1.74744        0.88259        0.81566
B          1.65028       -1.32909        0.05859
B         -0.27135       -1.65051        0.83554
B         -5.90671       -1.61228       -0.78989
B         -6.12020        0.09967       -0.82332
B         -5.94110        1.83149       -0.79672
B         -0.31929       -2.68845        1.53515
