45
isomer_1335.log	Energy: -113477.4636723
B          2.54739       -0.88485        0.63736
B          3.50197       -2.56218        0.73211
B          2.51327       -3.50773        1.53865
B          0.79641       -3.13477        1.44450
B          1.36158       -0.29361        1.63696
B         -1.45852       -1.21740        1.21674
B          0.59355       -3.52594       -0.42659
B          3.41219        0.11843       -0.24089
B         -0.58039       -2.67046        0.63690
B          3.67728       -1.59385       -0.44112
B          1.99146       -2.49005       -0.07609
B         -0.93507       -3.21781       -0.94280
B         -1.97723       -2.26970       -0.14328
B         -3.43179       -1.81601       -0.97590
B         -0.90724        1.66485        1.45252
B         -2.51262        1.95581        0.93141
B         -3.48211        0.76740        0.30304
B         -4.39076       -0.52456       -0.41673
B         -4.70982        1.18943       -0.78712
B         -3.90718        2.33064        0.02040
B         -2.90602        3.56463        0.24376
B         -1.38018        3.20746        1.01294
B         -1.76542        4.55656        0.21499
B          1.24734        3.85250        0.08373
B         -0.24782        4.33907        0.31793
B          1.84203        2.30314        0.64774
B          2.57746        3.27949       -0.54293
B          3.16191        1.79985       -0.11498
B          0.28609        2.78775        0.87773
B          1.96752       -1.91619        1.77687
B         -2.97281       -0.91988        0.39312
B          0.84248        1.22390        1.46442
B         -2.39165       -3.00296       -1.65589
B          4.27608       -0.49477       -1.60177
B          4.12601        1.12038       -1.24337
B          3.76918        2.76804       -1.49862
B          4.59006        2.06409       -2.54482
B          4.74179        0.55522       -2.63670
B         -1.96956        0.33470        1.07337
B          1.69767       -4.20087        0.42121
B          0.12546       -1.64420        1.77770
B         -3.71448       -2.61199       -2.32013
B         -4.60483       -1.36119       -2.08984
B         -5.07858        0.07605       -1.73544
B         -0.32209        0.00160        1.57891
