45
isomer_1336.log	Energy: -113443.0928809
B          2.53315        1.76926       -0.57498
B          2.44377        3.44980        0.15135
B          1.06051        4.18592        0.21854
B         -0.34848        3.40017       -0.46488
B          1.19853        0.92001       -0.87481
B         -1.72765        0.83442       -0.78905
B         -1.80869        4.13449        0.18481
B          3.90698        1.02962       -0.15346
B         -1.79549        2.50968       -0.48565
B          3.73687        2.59873        0.34174
B         -0.39734        4.73272        0.39523
B         -3.14985        3.26203        0.13986
B         -3.19491        1.65192       -0.38564
B         -4.57421        0.70006       -0.08838
B         -0.25712       -1.83458       -1.47869
B         -1.37447       -2.29319        0.24011
B         -2.96092       -1.82052       -0.10822
B         -4.33260       -0.89311        0.30957
B         -4.17244       -2.51537        0.89714
B         -2.75554       -3.25625        0.61300
B         -1.39437       -4.08681        0.43998
B         -0.16819       -3.25237       -0.50382
B         -0.01301       -4.66820        0.29379
B          2.68134       -3.26854       -0.22243
B          1.35711       -4.07295       -0.06654
B          2.60534       -1.53952       -0.48512
B          3.97228       -2.37737       -0.00097
B          3.96071       -0.75117       -0.20462
B          1.27666       -2.48563       -0.86296
B          1.12953        2.53332       -0.34199
B         -3.18713       -0.11807       -0.63396
B          1.18504       -0.77326       -0.80269
B         -4.49038        2.38322        0.45624
B          5.09753        1.79273        0.78186
B          5.18968        0.16521        0.36420
B          5.26234       -1.51930        0.60161
B          6.28882       -0.60913        1.30341
B          6.20195        0.87944        1.41877
B         -1.65897       -0.92470       -0.99657
B         -0.15154       -1.26556        0.16110
B         -0.32692        1.76728       -0.83090
B         -5.53555        1.42053        0.96233
B         -5.66762       -0.13974        1.07430
B         -5.40539       -1.66041        1.20563
B         -0.23936        0.00519       -1.19824
