45
isomer_1337.log	Energy: -112937.4811724
B          2.66540       -1.46432        0.35951
B          2.62035       -3.26313       -0.04144
B          1.17178       -4.05217       -0.25764
B         -0.29841       -3.30797        0.28210
B          1.29810       -0.58212        0.72998
B         -1.78812       -0.79545        0.82578
B         -1.66214       -4.08335       -0.40386
B          3.97632       -0.66424        0.29735
B         -1.76443       -2.45684        0.20871
B          3.91235       -2.38963       -0.15124
B         -0.22867       -4.63806       -0.52822
B         -3.09639       -3.24658       -0.39434
B         -3.16770       -1.66667        0.18268
B         -4.60476       -0.81944       -0.26534
B         -0.30875        1.77667        0.91190
B         -1.74625        2.48347        0.32021
B         -3.16527        1.68104        0.27646
B         -4.59416        0.84558       -0.20547
B         -4.50787        2.46447       -0.49263
B         -3.12562        3.27102       -0.26864
B         -1.73975        4.13414       -0.26253
B         -0.34021        3.39952        0.39629
B         -0.33725        4.76330       -0.40049
B          2.49169        3.45255        0.02677
B          1.08478        4.22384       -0.15997
B          2.55704        1.81587        0.43047
B          3.88417        2.61734       -0.14850
B          3.96979        1.02204        0.31308
B          1.14270        2.62596        0.59422
B          1.18168       -2.47010        0.51342
B         -3.24779       -0.04692        0.61477
B          1.13155        0.94902        0.74940
B         -4.54017       -2.43757       -0.58956
B          5.21658       -1.50862       -0.65984
B          5.18552        0.13129       -0.42256
B          5.18380        1.84145       -0.64214
B          6.29181        0.95688       -1.26540
B          6.31593       -0.57730       -1.28539
B         -1.78516        0.86381        0.85735
B          2.46924       -2.41729        1.59142
B         -0.40987       -1.69844        0.84950
B         -5.85160       -1.59034       -0.73775
B         -6.00324        0.04273       -0.74507
B         -5.82766        1.62108       -0.73346
B          0.39069       -0.80656       -0.26988
