45
isomer_1339.log	Energy: -113386.7110346
B         -2.82801        1.54895        0.59015
B         -2.89712        3.17661        0.00062
B         -1.57084        4.06485       -0.03302
B         -0.12763        3.28831        0.39784
B         -1.47038        0.74467        1.06962
B          1.50530        0.84017        0.68155
B          1.24553        4.21696       -0.20249
B         -4.05130        0.64307        0.06051
B          1.42209        2.58758        0.37644
B         -4.09499        2.27098       -0.26791
B         -0.23242        4.74446       -0.24011
B          2.63798        3.51296       -0.25794
B          2.88419        1.84806        0.15612
B          4.38984        1.22149       -0.04800
B          0.18000       -1.68917        1.53739
B          2.40424       -2.77630        0.78455
B          3.13999       -1.46830       -0.01145
B          4.49043       -0.45642       -0.37236
B          4.62583       -2.10111       -0.88482
B          3.47365       -3.06336       -0.44467
B          2.05080       -3.74563       -0.58871
B          0.64372       -3.15902        0.50135
B          0.63940       -4.18748       -0.76238
B         -2.26211       -3.24912       -0.22104
B         -0.75119       -3.80349       -0.38174
B         -2.52086       -1.72325        0.46676
B         -3.72118       -2.60366       -0.39696
B         -3.87960       -0.99535       -0.07343
B         -1.07949       -2.49785        0.60882
B         -1.49046        2.40940        0.79107
B          3.12994        0.15893        0.49157
B         -1.26459       -0.85546        1.17139
B          4.03984        2.80280       -0.67973
B         -5.41783        1.33126       -0.71872
B         -5.36652       -0.30087       -0.27786
B         -5.09413       -1.94248       -0.84970
B         -6.20063       -1.06737       -1.47928
B         -6.43395        0.39951       -1.34751
B          1.79728       -0.87873        0.93047
B          0.14216       -0.03371        0.96110
B          0.06057        1.69965        0.91022
B          5.16642        1.97378       -1.25303
B          5.60275        0.50178       -1.25988
B          5.62548       -1.03556       -1.32864
B          1.45779       -2.35252        1.89383
