45
isomer_1340.log	Energy: -113658.0078879
B         -2.63432       -1.71539       -0.48805
B         -2.61944       -3.28274        0.08059
B         -1.23821       -4.12159        0.17822
B          0.21274       -3.39200       -0.50682
B         -1.18274       -0.86944       -0.91882
B          1.73601       -0.86074       -0.81805
B          1.56849       -4.14417        0.30292
B         -4.00599       -0.79869       -0.17798
B          1.70405       -2.57923       -0.44347
B         -3.99006       -2.43867        0.27166
B          0.14095       -4.69946        0.44550
B          2.97764       -3.35402        0.27066
B          3.11460       -1.77398       -0.24562
B          4.55476       -0.95735        0.16478
B          0.41954        1.78201       -1.04613
B          1.91385        2.53399       -0.55166
B          3.28268        1.65462       -0.35735
B          4.63403        0.75739        0.13395
B          4.54725        2.39953        0.65782
B          3.21287        3.24276        0.21753
B          1.86716        4.11264        0.22707
B          0.43243        3.36576       -0.48958
B          0.47293        4.72084        0.37755
B         -2.35878        3.34976        0.14138
B         -0.93273        4.14349        0.20276
B         -2.47178        1.77671       -0.28894
B         -3.80190        2.58617        0.34206
B         -3.91902        0.92597       -0.08655
B         -1.04239        2.55531       -0.54729
B         -1.25026       -2.57205       -0.70497
B          3.31009       -0.05673       -0.60527
B         -1.10228        0.82983       -0.83752
B          4.33185       -2.55582        0.74930
B         -5.28991       -1.58541        0.70374
B         -5.27991        0.11306        0.41891
B         -5.16974        1.84442        0.69831
B         -6.34281        0.93615        1.27974
B         -6.38973       -0.59881        1.30567
B          1.84367        0.83238       -0.90469
B         -2.59497        0.05997       -0.75827
B          0.25552       -1.81597       -1.08233
B          5.42753       -1.65864        1.30765
B          5.69639       -0.11576        1.23232
B          5.59975        1.44340        1.20497
B          0.36017       -0.01945       -1.05568
