45
isomer_1343.log	Energy: -113466.7539575
B         -2.72217        1.57157        0.75098
B         -2.71735        3.21315        0.06479
B         -1.39384        4.03944       -0.09906
B          0.16212        3.34416        0.54592
B         -1.28632        0.81268        0.92797
B          1.52449        0.68455        0.16062
B          1.45499        4.09323       -0.39649
B         -4.02618        0.72896        0.29922
B          1.52353        2.45256        0.10101
B         -4.07718        2.34055        0.02750
B          0.01382        4.58874       -0.44615
B          2.87298        3.31311       -0.40417
B          2.96386        1.68797       -0.06055
B          4.51707        1.00009        0.15007
B          0.35217       -1.71026        1.23710
B          1.59380       -2.17534       -0.05162
B          3.18414       -1.63460        0.40437
B          4.51952       -0.66629       -0.11990
B          4.48878       -2.34149       -0.51167
B          3.10390       -3.10466       -0.26022
B          1.75911       -3.93117       -0.18388
B          0.39563       -3.28708        0.68907
B          0.37458       -4.52695       -0.33728
B         -2.42483       -3.28134       -0.16569
B         -1.07653       -4.05227       -0.14133
B         -2.46133       -1.55406        0.16150
B         -3.78328       -2.42441       -0.45758
B         -3.92854       -0.93717        0.20287
B         -1.10448       -2.48901        0.42446
B         -1.31928        2.45907        0.45247
B          3.20604        0.10724        0.67289
B         -0.98772       -0.74094        0.32117
B          4.29084        2.55766       -0.66777
B         -5.36614        1.55337       -0.45557
B         -5.37546       -0.14291       -0.16822
B         -5.21550       -1.75852       -0.69321
B         -6.44510       -0.90449       -1.12740
B         -6.43088        0.59064       -1.12989
B          1.80878       -0.77866        1.14198
B          0.23722        0.03379        1.27416
B          0.20181        1.71826        0.91252
B          5.45122        1.64307       -0.97501
B          5.79324        0.11529       -0.88628
B          5.68979       -1.42687       -0.85179
B          0.65869       -0.78067       -0.33194
