45
isomer_1344.log	Energy: -113434.7613680
B         -1.54557       -1.43653       -0.43169
B         -1.03138       -3.12609        0.45106
B         -0.37299       -4.26781       -0.67359
B          0.94306       -3.25530       -1.36960
B         -0.27775       -0.42738       -1.18167
B          1.38390       -0.50632       -0.42829
B          2.27857       -3.83314       -0.08955
B         -3.13835       -1.15601        0.14870
B          1.80087       -2.16522       -0.09496
B         -2.38604       -2.38963        0.84046
B          1.10580       -4.73413       -0.50597
B          3.40523       -2.67373        0.20063
B          3.04130       -1.05565       -0.00397
B          4.32304        0.09086        0.09005
B         -0.22522        1.90484       -1.30739
B          0.81065        2.78382       -0.30030
B          2.29195        2.23923        0.04650
B          3.73369        1.56320        0.63848
B          3.44069        3.22794        0.93042
B          1.95560        3.78692        0.42849
B          0.47202        4.40170        0.23294
B         -0.62083        3.50172       -0.83825
B         -1.01488        4.69876        0.11390
B         -3.38597        2.85759       -0.52668
B         -2.25289        3.88040       -0.36423
B         -2.97212        1.12729       -0.94835
B         -4.39162        1.75319       -0.16865
B         -4.05706        0.18203       -0.32574
B         -1.87590        2.31962       -1.13353
B         -0.67557       -2.64675       -1.23975
B          2.71507        0.60515       -0.27514
B         -1.45387        0.71294       -1.30565
B          4.54052       -1.60794        0.58539
B         -3.76573       -2.05281        1.51536
B         -4.68446       -0.86486        0.73292
B         -5.32716        0.69506        0.69725
B         -5.76961       -0.25021        1.82156
B         -5.03138       -1.46673        2.21382
B          1.03777        1.07682       -0.74677
B          0.59932       -3.38752        0.51101
B          0.78292       -1.64276       -1.62849
B          5.45014       -0.45104        1.05446
B          5.28925        1.09331        1.19259
B          4.75442        2.57398        1.31977
B          0.10055       -1.67880        0.12246
