45
isomer_1346.log	Energy: -113324.0435496
B          2.64082       -1.56694        0.49851
B          2.67515       -3.27249        0.13853
B          1.35502       -4.09513        0.06616
B         -0.12579       -3.30032        0.44643
B          1.26071       -0.63315        0.61573
B         -1.56728       -0.85939        0.78990
B         -1.43168       -4.15935       -0.38909
B          3.92445       -0.72651        0.20082
B         -1.53222       -2.46859        0.09200
B          3.96418       -2.39239       -0.06079
B         -0.00698       -4.70393       -0.32607
B         -2.83848       -3.27088       -0.69149
B         -2.97497       -1.73763        0.06568
B         -4.40262       -0.92164       -0.24260
B         -0.32235        1.77851        0.91170
B         -1.74541        2.49449        0.38791
B         -3.12424        1.65269        0.27259
B         -4.47806        0.73300       -0.13850
B         -4.50269        2.45120       -0.38727
B         -3.12156        3.28479       -0.14761
B         -1.77412        4.13679       -0.19675
B         -0.34987        3.39862        0.48036
B         -0.36680        4.72046       -0.38125
B          2.44734        3.41773       -0.15787
B          1.08355        4.15820       -0.18390
B          2.50657        1.74605        0.49965
B          3.74067        2.58354       -0.35001
B          3.86518        0.99705        0.11645
B          1.14642        2.57373        0.55113
B          1.29645       -2.41605        0.70034
B         -3.14990       -0.06351        0.45896
B          1.17369        0.94594        0.89711
B         -4.27117       -2.52121       -0.81544
B          5.27621       -1.51592       -0.58910
B          5.13842        0.15465       -0.41091
B          5.08226        1.79744       -0.81511
B          6.16937        0.90092       -1.45349
B          6.25773       -0.59166       -1.34259
B         -1.66165        0.77977        0.79274
B         -0.07422       -1.69175        1.71481
B         -0.14305       -1.53644        0.16807
B         -5.47020       -1.60743       -1.18832
B         -5.71791       -0.08717       -1.04783
B         -5.60767        1.48877       -0.93154
B         -0.24328       -0.05486        1.38195
