45
isomer_1348.log	Energy: -113670.6535303
B         -2.48014        1.77810        0.42001
B         -2.39565        3.34331       -0.12536
B         -1.02310        4.17733       -0.13533
B          0.36194        3.40416        0.54663
B         -1.12644        0.86603        1.03871
B          1.76004        0.81599        0.85664
B          1.76678        4.14659       -0.21807
B         -3.87587        0.91701        0.00062
B          1.80819        2.52879        0.50094
B         -3.76718        2.54942       -0.42439
B          0.36595        4.75800       -0.33745
B          3.10969        3.27939       -0.22556
B          3.18187        1.66969        0.26910
B          4.56709        0.79469       -0.15280
B          0.32228       -1.83564        1.08624
B          1.73342       -2.56307        0.43846
B          3.13240       -1.74292        0.23241
B          4.53221       -0.89845       -0.20115
B          4.33911       -2.51609       -0.78463
B          3.00185       -3.33304       -0.31589
B          1.63260       -4.16438       -0.30004
B          0.26539       -3.39786        0.49826
B          0.21062       -4.73925       -0.39257
B         -2.53274       -3.29456       -0.02079
B         -1.16655       -4.14042       -0.12428
B         -2.55442       -1.71657        0.48803
B         -3.91649       -2.47474       -0.20617
B         -3.96554       -0.81706        0.21083
B         -1.18215       -2.56607        0.75726
B         -1.11471        2.60738        0.76631
B          3.29916       -0.04806        0.61615
B         -2.57131        0.03586        0.65253
B          4.41545        2.42435       -0.71511
B         -5.05765        1.72989       -0.92926
B         -5.25869        0.06389       -0.41490
B         -5.21559       -1.65610       -0.66519
B         -6.25673       -0.73165       -1.38785
B         -6.16460        0.78235       -1.52417
B          1.74898       -0.86097        0.86971
B         -1.14454       -0.83215        1.02842
B          0.36312        1.83503        1.11227
B          5.45129        1.48762       -1.28931
B          5.62888       -0.06151       -1.28749
B          5.41772       -1.60381       -1.32599
B          0.35404       -0.00050        1.11427
