45
isomer_1349.log	Energy: -113468.0408840
B         -2.67157       -1.50203       -0.69563
B         -2.71646       -3.13862       -0.92759
B         -1.52944       -3.91131        0.08573
B          0.05364       -3.22701       -0.38627
B         -1.05935       -0.64877       -0.94854
B          1.72439       -0.87095       -0.87332
B          1.28594       -4.03412        0.47722
B         -3.93671       -0.48271       -0.26577
B          1.52559       -2.43539       -0.19296
B         -3.99341       -2.18455        0.21251
B         -0.16683       -4.54791        0.47736
B          2.75089       -3.33661        0.50102
B          3.02782       -1.84415       -0.12869
B          4.50281       -1.06219        0.23783
B          0.56465        1.69144       -0.87385
B          2.06989        2.39998       -0.53184
B          3.45209        1.51083       -0.38089
B          4.81647        0.52448       -0.18698
B          4.78990        2.19770        0.41572
B          3.48800        3.09484        0.07797
B          2.17143        4.02207        0.19640
B          0.69550        3.36028       -0.39115
B          0.81651        4.71265        0.43557
B         -2.10158        3.50697        0.19093
B         -0.63187        4.21803        0.26263
B         -2.32406        2.00131       -0.43066
B         -3.58528        2.84818        0.37101
B         -3.77648        1.22709       -0.09311
B         -0.83056        2.63049       -0.47180
B         -1.27747       -2.39183       -1.04744
B          3.34273       -0.19260       -0.66822
B         -0.93305        0.94066       -0.89720
B          4.21006       -2.64205        0.84373
B         -5.27851       -1.23873        0.55485
B         -5.23164        0.45222        0.24967
B         -4.93799        2.14593        0.78045
B         -6.04267        1.24875        1.40769
B         -6.23015       -0.25875        1.28976
B          1.87559        0.72813       -0.79941
B         -2.80942       -3.07635        0.63541
B          0.26561       -1.62753       -1.02601
B          5.47688       -1.87285        1.19337
B          5.85065       -0.36336        1.03732
B          5.77395        1.16760        0.94104
B         -2.46648        0.26075       -0.65790
