45
isomer_0135.log	Energy: -113342.4232775
B         -2.47437        1.65906        0.45102
B         -2.35374        3.26813       -0.18946
B         -0.96493        4.03221       -0.38258
B          0.43420        3.27547        0.22338
B         -1.06330        0.71523        0.81542
B          1.78409        0.79792        0.78903
B          1.84992        4.07210       -0.33258
B         -3.92587        1.01591        0.28196
B          1.84520        2.44217        0.42310
B         -3.79997        2.60086       -0.11826
B          0.45950        4.64205       -0.58669
B          3.23409        3.22833       -0.16482
B          3.30311        1.68369        0.33602
B          4.71438        0.75662        0.12991
B          0.30130       -1.54085        0.95925
B          1.65598       -2.45140        0.39162
B          3.15726       -1.72868        0.24257
B          4.66433       -0.90565        0.11439
B          4.40128       -2.49804       -0.60007
B          2.98284       -3.22491       -0.33890
B          1.50587       -3.93914       -0.47594
B          0.20312       -3.24975        0.40535
B          0.08694       -4.30836       -0.80129
B         -2.73009       -3.24106        0.04165
B         -1.30367       -3.71515       -0.40084
B         -2.61263       -1.44412        0.87549
B         -3.77232       -2.15595       -0.27031
B         -3.97784       -0.63332        0.39142
B         -1.24227       -2.41561        0.85758
B         -1.04604        2.43692        0.35292
B          3.29962       -0.04103        0.70921
B         -1.08190       -0.80837       -0.17132
B          4.61773        2.40612       -0.45432
B         -5.20549        1.92440       -0.45953
B         -5.35567        0.23330        0.06960
B         -5.22600       -1.32905       -0.52145
B         -6.32859       -0.46047       -1.10184
B         -6.24030        1.02112       -1.11472
B          1.75003       -0.79996        0.80872
B         -1.99694       -1.95676       -0.76886
B          0.41047        1.63641        0.77259
B          5.73765        1.46216       -0.86484
B          5.87198       -0.08829       -0.87089
B          5.60040       -1.61699       -0.95248
B         -1.16936       -0.75729        1.49978
