45
isomer_1350.log	Energy: -113409.2862086
B         -2.37873       -1.83671       -0.26680
B         -2.14056       -3.30570        0.33434
B         -0.73176       -4.08812        0.30229
B          0.52489       -3.37704       -0.55361
B         -1.83859       -0.37280       -0.80076
B          1.72909       -0.79392       -0.70692
B          2.03970       -4.07521        0.12294
B         -3.80794       -1.10966       -0.04769
B          1.99737       -2.52318       -0.64567
B         -3.61714       -2.62955        0.52243
B          0.66350       -4.67568        0.38437
B          3.36496       -3.18792        0.02354
B          3.32841       -1.57090       -0.39328
B          4.67286       -0.60632       -0.16558
B          0.14854        1.71455       -1.08349
B          1.48777        2.51695       -0.25428
B          2.88024        1.77290        0.04084
B          4.36474        0.97968        0.35546
B          4.17565        2.64057        0.79650
B          2.77580        3.37256        0.40069
B          1.29361        4.12678        0.38229
B          0.03451        3.33157       -0.43906
B         -0.13570        4.66894        0.39161
B         -2.76275        3.12802       -0.06250
B         -1.51057        4.01768        0.04066
B         -2.48122        1.27727       -0.29506
B         -3.98035        2.19197        0.05412
B         -3.96100        0.60757       -0.20965
B         -1.38800        2.45334       -0.82066
B         -0.91099       -2.42740       -0.42590
B          3.14539        0.12403       -0.50706
B         -1.27045        0.89583       -1.64844
B          4.67275       -2.26409        0.40010
B         -5.06642       -1.93609        0.81748
B         -5.19451       -0.32524        0.30034
B         -5.34103        1.35314        0.45705
B         -6.41895        0.42572        1.07897
B         -6.27924       -1.05534        1.26753
B          1.53765        0.81424       -0.60507
B         -0.90427        0.85466        0.13958
B          0.48838       -1.81039       -1.05448
B          5.61784       -1.23154        0.99387
B          5.75511        0.30300        1.06482
B          5.43116        1.82022        1.17274
B         -0.00975       -0.18837       -0.85858
