45
isomer_1351.log	Energy: -112753.3161524
B         -2.68838       -1.46317       -0.33370
B         -2.72265       -3.09547        0.09638
B         -1.28769       -3.99960        0.29505
B          0.20323       -3.24399       -0.28312
B         -1.02505       -0.59438       -0.71413
B          1.77348       -0.81215       -0.80485
B          1.55081       -4.06911        0.41324
B         -4.04523       -0.52932       -0.26807
B          1.62719       -2.41712       -0.21057
B         -4.09105       -2.19620        0.23699
B          0.10275       -4.64066        0.57390
B          3.00539       -3.30038        0.40846
B          3.11903       -1.69040       -0.18570
B          4.61139       -0.92648        0.28791
B          0.46317        1.79067       -0.89912
B          1.87410        2.44173       -0.28998
B          3.28285        1.57821       -0.24400
B          4.69167        0.69464        0.25653
B          4.61549        2.27156        0.48956
B          3.33474        3.20130        0.29764
B          1.95557        4.11554        0.27647
B          0.53291        3.39889       -0.39151
B          0.57015        4.82710        0.40172
B         -2.31168        3.54556       -0.06812
B         -0.87467        4.30046        0.14682
B         -2.41350        1.90856       -0.42035
B         -3.74697        2.80355        0.11006
B         -3.93021        1.14076       -0.30567
B         -0.94794        2.66824       -0.60703
B         -1.20531       -2.37353       -0.53908
B          3.27851       -0.15457       -0.61060
B         -0.98652        0.96048       -0.72916
B          4.38846       -2.48697        0.57236
B         -5.33201       -1.33022        0.72804
B         -5.22117        0.29434        0.45179
B         -5.09936        2.09263        0.64059
B         -6.29442        1.23284        1.26511
B         -6.41247       -0.29204        1.31129
B          1.85670        0.83026       -0.82960
B         -2.54640       -3.70795       -0.83048
B          0.31030       -1.62049       -0.85583
B          5.87829       -1.79984        0.75353
B          6.14165       -0.12795        0.77951
B          6.03940        1.54573        0.75730
B         -2.02457       -0.77107       -1.12961
