45
isomer_1352.log	Energy: -112393.4814090
B         -2.55228        1.72240        0.40953
B         -2.53151        3.36360        0.04398
B         -1.11827        4.18704       -0.18299
B          0.32998        3.34096        0.36865
B         -1.10025        0.81882        0.71625
B          1.77402        0.82981        0.81928
B          1.72924        4.12384       -0.30478
B         -4.01579        0.85801        0.31941
B          1.70807        2.43946        0.27237
B         -3.94303        2.55355       -0.12204
B          0.30937        4.79745       -0.44697
B          3.15598        3.26817       -0.31799
B          3.16907        1.64168        0.23427
B          4.62677        0.82428       -0.26073
B          0.32374       -1.71799        0.85450
B          1.70581       -2.41609        0.23057
B          3.16754       -1.61915        0.20620
B          4.62602       -0.79470       -0.27467
B          4.45920       -2.35010       -0.53430
B          3.15294       -3.23587       -0.37399
B          1.72540       -4.09031       -0.37550
B          0.32687       -3.31783        0.31132
B          0.30490       -4.76004       -0.52926
B         -2.53464       -3.33220       -0.01367
B         -1.12217       -4.15294       -0.25479
B         -2.55387       -1.69752        0.38009
B         -3.94540       -2.51809       -0.16571
B         -4.01658       -0.83034        0.30488
B         -1.12514       -2.52392        0.54429
B         -1.12277        2.54451        0.58793
B          3.24928        0.10781        0.61821
B         -1.10101       -0.80071        0.70230
B          4.46141        2.38407       -0.49354
B         -5.26459        1.75386       -0.64101
B         -5.26389        0.12073       -0.42112
B         -5.26621       -1.70835       -0.67082
B         -6.42741       -0.74779       -1.27183
B         -6.42668        0.80487       -1.25846
B          1.77325       -0.81616        0.80511
B         -1.77523       -1.22785        1.84999
B          0.32535        1.73201        0.88420
B          5.97095        1.67411       -0.70470
B          6.16559       -0.03861       -0.78327
B          5.96704       -1.76837       -0.80496
B         -1.30109        0.57393       -0.25620
