45
isomer_1354.log	Energy: -113468.0305226
B          2.32282        2.00200       -0.43149
B          2.09929        3.50650        0.19278
B          0.62983        4.21729        0.26395
B         -0.69688        3.36158       -0.39492
B          0.93278        0.94172       -0.90086
B         -1.87595        0.72836       -0.80102
B         -2.17288        4.02106        0.19638
B          3.77537        1.22865       -0.09031
B         -2.07099        2.40027       -0.53309
B          3.58313        2.84878        0.37403
B         -0.81836        4.71171        0.43593
B         -3.48916        3.09355        0.07824
B         -3.45238        1.50964       -0.38163
B         -4.81655        0.52277       -0.18581
B         -0.26493       -1.62691       -1.02483
B         -1.52475       -2.43559       -0.19261
B         -3.02711       -1.84522       -0.12854
B         -4.50258       -1.06417        0.23794
B         -4.20925       -2.64399        0.84357
B         -2.74918       -3.33740        0.50204
B         -1.28366       -4.03428        0.47805
B         -0.05233       -3.22629       -0.38511
B          0.16944       -4.54721        0.47777
B          2.71753       -3.13569       -0.92886
B          1.53151       -3.91000        0.08525
B          2.67181       -1.49913       -0.69560
B          3.99519       -2.18369        0.20893
B          3.93945       -0.48144       -0.27203
B          1.27815       -2.39030       -1.04665
B          0.82909        2.63116       -0.47341
B         -3.34245       -0.19362       -0.66731
B          1.05985       -0.64777       -0.94923
B         -4.79013        2.19540        0.41675
B          4.93443        2.14564        0.78700
B          5.23037        0.45392        0.25219
B          5.28037       -1.23802        0.55084
B          6.23042       -0.25910        1.28940
B          6.03898        1.24723        1.41387
B         -1.72349       -0.87060       -0.87222
B          2.81217       -3.07574        0.63428
B         -0.56543        1.69280       -0.87826
B         -5.77427        1.16526        0.94218
B         -5.84999       -0.36587        1.03878
B         -5.47641       -1.87559        1.19335
B          2.46715        0.26233       -0.65971
