45
isomer_1355.log	Energy: -112729.4924486
B         -2.63847        1.71020        0.39834
B         -2.62023        3.34678        0.01306
B         -1.22004        4.17768       -0.22684
B          0.23449        3.35645        0.33121
B         -1.19267        0.83154        0.70867
B          1.70414        0.85808        0.81328
B          1.62319        4.13407       -0.36006
B         -4.07733        0.82830        0.32262
B          1.62386        2.46287        0.24177
B         -4.02147        2.51131       -0.13971
B          0.20045        4.78307       -0.50233
B          3.05469        3.29006       -0.36853
B          3.08901        1.67387        0.20673
B          4.54822        0.85574       -0.28162
B          0.25565       -1.72040        0.89077
B          1.65625       -2.41000        0.26243
B          3.11095       -1.59554        0.22386
B          4.55458       -0.76127       -0.27202
B          4.40719       -2.33065       -0.51778
B          3.09938       -3.22174       -0.33689
B          1.68362       -4.09030       -0.32328
B          0.27975       -3.32661        0.36095
B          0.27427       -4.76245       -0.45827
B         -2.57064       -3.36572        0.04034
B         -1.16121       -4.17623       -0.19056
B         -2.60915       -1.72582        0.41465
B         -3.98531       -2.54894       -0.12110
B         -4.06546       -0.87050        0.32848
B         -1.18071       -2.54710        0.58723
B         -1.21714        2.55571        0.56296
B          3.18475        0.13890        0.61247
B         -1.16749       -0.82578        0.72583
B          4.38147        2.42067       -0.54282
B         -5.32706        1.69728       -0.64624
B         -5.31210        0.06249       -0.40558
B         -5.29863       -1.75478       -0.63114
B         -6.45575       -0.81101       -1.24044
B         -6.47513        0.72731       -1.24969
B          1.71671       -0.78717        0.82257
B         -0.86358        0.40402        1.64224
B          0.24676        1.75578        0.87514
B          5.86381        1.69341       -0.74319
B          6.06254        0.00358       -0.79497
B          5.87877       -1.70132       -0.79058
B          0.72510       -0.94583       -0.24201
