45
isomer_1356.log	Energy: -112591.4442290
B         -2.60077        1.75384        0.41967
B         -2.58309        3.39438        0.05101
B         -1.17157        4.21899       -0.18226
B          0.27951        3.37556        0.36602
B         -1.14669        0.85246        0.72313
B          1.72790        0.86687        0.81641
B          1.67559        4.15877       -0.31358
B         -4.06360        0.88764        0.33610
B          1.65828        2.47543        0.26675
B         -3.99425        2.58244       -0.10873
B          0.25449        4.83051       -0.45221
B          3.10325        3.30467       -0.33005
B          3.12004        1.67923        0.22518
B          4.57698        0.86254       -0.27324
B          0.28062       -1.68248        0.86125
B          1.66136       -2.38019        0.23394
B          3.12210       -1.58165        0.20314
B          4.57801       -0.75646       -0.28419
B          4.41207       -2.31252       -0.54038
B          3.10737       -3.19946       -0.37401
B          1.68079       -4.05551       -0.36910
B          0.28372       -3.28332        0.32102
B          0.26054       -4.72711       -0.51681
B         -2.57885       -3.30151        0.00575
B         -1.16629       -4.12111       -0.23863
B         -2.59860       -1.66613        0.39655
B         -3.99104       -2.48927       -0.14301
B         -4.06253       -0.80073        0.32469
B         -1.16839       -2.49061        0.55744
B         -1.17160        2.57788        0.59170
B          3.20328        0.14616        0.61168
B         -1.14567       -0.76709        0.71218
B          4.40907        2.42171       -0.50838
B         -5.31665        1.78031       -0.62174
B         -5.31337        0.14760       -0.39884
B         -5.31446       -1.68195       -0.64514
B         -6.47878       -0.72381       -1.24399
B         -6.47976        0.82888       -1.23350
B          1.72894       -0.77912        0.80528
B         -0.72071       -1.20971        2.08201
B          0.27843        1.76756        0.88457
B          5.91868        1.71306       -0.72334
B          6.11500        0.00042       -0.79940
B          5.91833       -1.72960       -0.81722
B         -0.28770       -0.88757       -0.67771
