45
isomer_1357.log	Energy: -113426.3219392
B          2.42909        1.87509       -0.56436
B          2.32782        3.44212       -0.02980
B          0.93188        4.20872        0.15613
B         -0.50026        3.40950       -0.41686
B          0.97251        0.94500       -1.04297
B         -1.82267        0.80961       -0.82717
B         -1.85318        4.09193        0.37390
B          3.86632        1.05852       -0.29188
B         -1.89297        2.49713       -0.41217
B          3.75481        2.65817        0.14436
B         -0.48188        4.74255        0.47508
B         -3.22741        3.18463        0.36460
B         -3.24794        1.62319       -0.14347
B         -4.67740        0.71477        0.16788
B         -0.38572       -1.63756       -0.95069
B         -1.80547       -2.51272       -0.53931
B         -3.28308       -1.75000       -0.39369
B         -4.70922       -0.96418       -0.10784
B         -4.45601       -2.54470        0.55732
B         -3.07815       -3.32857        0.14293
B         -1.67496       -4.10208        0.18430
B         -0.28650       -3.32231       -0.50963
B         -0.24667       -4.64871        0.38765
B          2.55551       -3.17237        0.08147
B          1.12065       -4.00739        0.15484
B          2.39316       -1.52093       -0.34050
B          4.11322       -2.74589        0.01497
B          3.81112       -0.65068       -0.11051
B          1.06190       -2.42147       -0.65768
B          0.97835        2.65903       -0.68423
B         -3.31793       -0.03451       -0.63019
B          0.96072       -0.68160       -0.96659
B         -4.56371        2.35418        0.71851
B          5.11061        1.84763        0.57802
B          5.21944        0.16014        0.25345
B          5.09346       -1.61650        0.66140
B          6.18942       -0.59071        1.27993
B          6.22859        0.90963        1.21656
B         -1.80514       -0.80011       -0.81293
B          3.32998       -1.79172        0.98439
B         -0.47474        1.79336       -1.01686
B         -5.72799        1.42366        1.12958
B         -5.84554       -0.11038        1.09928
B         -5.49775       -1.61568        1.15291
B          2.41370        0.16219       -0.83015
