45
isomer_1358.log	Energy: -109171.7728812
B          2.55645        1.76742       -0.40729
B          2.52471        3.40759       -0.03795
B          1.10609        4.22050        0.19335
B         -0.33711        3.36544       -0.35770
B          1.11032        0.85428       -0.71355
B         -1.76413        0.84516       -0.81157
B         -1.74069        4.13687        0.31994
B          4.02620        0.91321       -0.32169
B         -1.70862        2.45399       -0.26110
B          3.94222        2.60718        0.12377
B         -0.32537        4.82018        0.46121
B         -3.16132        3.27109        0.33367
B         -3.16386        1.64581       -0.22229
B         -4.61488        0.81698        0.27337
B         -0.29593       -1.69222       -0.85513
B         -1.67193       -2.40150       -0.23041
B         -3.13922       -1.61498       -0.20167
B         -4.60265       -0.80198        0.28360
B         -4.42437       -2.35674        0.53939
B         -3.11217       -3.23288        0.37479
B         -1.67862       -4.07720        0.37187
B         -0.28679       -3.29327       -0.31561
B         -0.25315       -4.73720        0.52163
B          2.57531       -3.28813        0.00438
B          1.16911       -4.11939        0.24607
B          2.58229       -1.65246       -0.38567
B          3.98054       -2.46441        0.15583
B          4.03895       -0.77513       -0.31101
B          1.15916       -2.48857       -0.54929
B          1.12086        2.57979       -0.58133
B         -3.23389        0.11228       -0.60960
B          1.12256       -0.76523       -0.70331
B         -4.46015        2.37737        0.50946
B          5.27031        1.81568        0.63861
B          5.28078        0.18310        0.41499
B          5.29647       -1.64649        0.66050
B          6.45190       -0.67910        1.26170
B          6.44017        0.87355        1.25188
B         -1.75169       -0.80079       -0.80116
B          1.60567       -2.20744       -0.96539
B         -0.32200        1.75774       -0.87694
B         -5.96425        1.65627        0.72162
B         -6.14664       -0.05796        0.79661
B         -5.93582       -1.78632        0.81399
B          0.73521        0.45796       -0.75258
