45
isomer_0136.log	Energy: -113675.8858492
B         -2.50926        1.75991        0.48902
B         -2.42747        3.33494       -0.03915
B         -1.04754        4.15723       -0.12254
B          0.35116        3.38436        0.51399
B         -1.12984        0.84874        1.04304
B          1.78685        0.83051        0.91187
B          1.74818        4.14421       -0.24620
B         -3.95620        0.91054        0.21544
B          1.80225        2.53267        0.48876
B         -3.80987        2.53738       -0.29216
B          0.34170        4.74579       -0.35182
B          3.09192        3.28043       -0.26666
B          3.17336        1.68034        0.25984
B          4.53199        0.79750       -0.23840
B          0.31273       -1.83052        1.08667
B          1.72424       -2.55133        0.43048
B          3.12886       -1.73330        0.22093
B          4.54718       -0.89447       -0.14425
B          4.32629       -2.49984       -0.76986
B          3.00840       -3.34085       -0.27830
B          1.64181       -4.16994       -0.25817
B          0.26857       -3.40265        0.53813
B          0.21948       -4.74797       -0.35313
B         -2.51381       -3.30382       -0.03689
B         -1.15710       -4.14923       -0.10887
B         -2.56336       -1.73061        0.53074
B         -3.86950       -2.48501       -0.27601
B         -3.98402       -0.84527        0.22449
B         -1.18600       -2.57744        0.78919
B         -1.11924        2.58976        0.76507
B          3.29351       -0.01587        0.60890
B         -1.17061       -0.85098        1.06951
B          4.40679        2.44441       -0.74981
B         -5.06038        1.73900       -0.86492
B         -5.19527        0.04455       -0.52327
B         -5.10437       -1.65160       -0.84541
B         -6.10426       -0.70649       -1.60640
B         -6.08392        0.81427       -1.61336
B          1.71726       -0.84303        0.78617
B         -2.60945        0.01603        0.74604
B          0.36936        1.82494        1.11685
B          5.47377        1.51857       -1.30131
B          5.62019       -0.03342       -1.30449
B          5.37294       -1.56967       -1.33784
B          0.34266       -0.00276        1.09406
