45
isomer_1361.log	Energy: -113403.4631278
B         -2.40217        1.86261        0.47862
B         -2.21996        3.42254       -0.23666
B         -0.78983        4.17212       -0.34298
B          0.55452        3.39916        0.40800
B         -1.10770        1.02207        1.06858
B          1.87007        0.82994        0.98350
B          1.99725        4.06283       -0.30958
B         -3.83280        1.11959        0.11996
B          1.96639        2.52095        0.57129
B         -3.61058        2.66748       -0.37906
B          0.63294        4.70439       -0.53433
B          3.32250        3.14734       -0.21239
B          3.26830        1.55800        0.29198
B          4.61327        0.56757       -0.11350
B          0.18295       -1.61147        0.97249
B          1.51240       -2.56575        0.41853
B          3.01646       -1.82102        0.28938
B          4.49853       -1.13706        0.03377
B          4.14789       -2.64166       -0.73252
B          2.73420       -3.39894       -0.35616
B          1.30184       -3.97473       -0.48290
B         -0.01948       -3.35031        0.63287
B         -0.20801       -4.05849       -0.90603
B         -2.80439       -3.12629        0.13756
B         -1.47287       -3.26927       -0.90790
B         -2.73886       -1.33577        0.74495
B         -4.03061       -2.16662       -0.04476
B         -4.05981       -0.58366        0.37448
B         -1.34631       -2.18277        0.56061
B         -0.97568        2.68437        0.56005
B          3.25387       -0.12997        0.67249
B         -1.30636       -0.57235        1.04709
B          4.59846        2.24814       -0.60522
B         -4.99762        1.94034       -0.82067
B         -5.26412        0.37385       -0.23784
B         -5.34192       -1.30975       -0.52509
B         -6.32839       -0.39894       -1.25242
B         -6.13269        1.06712       -1.43206
B          1.62079       -0.85457        0.73938
B         -1.48678       -4.02738        0.56082
B          0.47958        1.87351        1.11728
B          5.65210        1.24488       -1.10060
B          5.69419       -0.30098       -1.11674
B          5.27914       -1.78545       -1.23150
B          0.27929        0.11442        1.09724
