45
isomer_1362.log	Energy: -113434.6965500
B          2.66751       -1.58224        0.36065
B          2.59145       -3.26146       -0.08799
B          1.21243       -4.10015       -0.18508
B         -0.24377       -3.26773        0.21343
B          1.20957       -0.69698        0.60143
B         -1.69450       -0.75503        1.08655
B         -1.62580       -4.18399       -0.12117
B          4.10013       -0.87590        0.40727
B         -1.68806       -2.49226        0.52168
B          3.99126       -2.41673       -0.26237
B         -0.21135       -4.76849       -0.27614
B         -3.01073       -3.29644       -0.11881
B         -3.12209       -1.75275        0.40378
B         -4.40587       -0.83084       -0.26055
B         -0.35332        1.73307        0.93578
B         -1.69821        2.50450        0.27262
B         -3.07028        1.69327       -0.06255
B         -4.54012        0.82758       -0.01424
B         -4.42096        2.47134       -0.71152
B         -3.04755        3.30249       -0.37579
B         -1.63725        4.14475       -0.34976
B         -0.30682        3.37587        0.49004
B         -0.22390        4.72010       -0.36838
B          2.52064        3.23735        0.05922
B          1.16850        4.11574       -0.04618
B          2.60431        1.63105        0.67776
B          3.88000        2.36204       -0.14563
B          4.02020        0.79859        0.41911
B          1.21303        2.55612        0.68046
B          1.27292       -2.45515        0.33547
B         -3.13240        0.00993        0.47219
B          1.13088        0.83802        1.03774
B         -4.42706       -2.52803       -0.45959
B          5.28718       -1.67212       -0.69562
B          5.31411        0.00393       -0.33662
B          5.15404        1.65582       -0.67702
B          6.30521        0.76736       -1.33097
B          6.39292       -0.71961       -1.29654
B         -1.56574        0.74718        0.09611
B         -0.17865       -0.04733       -0.15157
B         -0.25635       -1.64157        0.64246
B         -5.59083       -1.64079       -0.90605
B         -5.74427       -0.07294       -0.98104
B         -5.51364        1.48565       -1.07635
B         -0.32676        0.07676        1.58378
