45
isomer_1363.log	Energy: -113421.8847350
B         -2.60541       -1.53062       -0.52800
B         -2.67061       -3.19338       -0.69977
B         -1.40914       -3.94599        0.18125
B          0.10912       -3.20322       -0.32477
B         -1.21900       -0.65461       -0.95886
B          1.73800       -0.83841       -1.03904
B          1.40832       -4.08346        0.34463
B         -3.78960       -0.57053       -0.00418
B          1.63300       -2.50497       -0.50006
B         -3.81314       -2.21375        0.49640
B          0.00005       -4.60479        0.44171
B          2.83816       -3.29631        0.33613
B          3.06709       -1.78991       -0.27297
B          4.41951       -0.92671        0.31011
B          0.41434        1.84686       -0.99163
B          1.88705        2.50347       -0.54150
B          3.26217        1.63616       -0.27062
B          4.67953        0.68158       -0.05785
B          4.53980        2.32671        0.60765
B          3.23918        3.20683        0.21890
B          1.89870        4.11731        0.28002
B          0.48561        3.39848       -0.42158
B          0.52959        4.76684        0.43133
B         -2.30467        3.46237        0.16187
B         -0.89773        4.24339        0.23148
B         -2.42243        1.84960       -0.39793
B         -3.73010        2.73032        0.29759
B         -3.73607        1.07199        0.13272
B         -1.04026        2.65780       -0.54683
B         -1.25121       -2.43730       -1.00827
B          3.31206       -0.08926       -0.65597
B         -1.12859        0.93315       -0.97414
B          4.26452       -2.57031        0.75429
B         -5.23460       -1.29170        0.62953
B         -5.19420        0.30587        0.10609
B         -5.09256        1.99776        0.64985
B         -6.21736        1.08380        1.15787
B         -6.37435       -0.40227        1.04464
B          1.81108        0.78639       -0.83034
B         -2.65575       -3.11908        0.86339
B          0.28583        0.04988       -1.00376
B          5.45216       -1.75332        1.20832
B          5.71795       -0.21355        1.17117
B          5.54358        1.31788        1.14037
B          0.25038       -1.74098       -1.16924
