45
isomer_1364.log	Energy: -113414.7600653
B          2.46547       -1.70238        0.18730
B          2.36812       -3.32036       -0.31678
B          0.96787       -4.07855       -0.40426
B         -0.39615       -3.29372        0.38756
B          1.17055       -0.74058        0.59182
B         -1.78324       -0.76782        1.01091
B         -1.81029       -4.04530       -0.28924
B          3.91080       -0.99494        0.08030
B         -1.81691       -2.44177        0.51012
B          3.77366       -2.54023       -0.42765
B         -0.45295       -4.64507       -0.52078
B         -3.16855       -3.15362       -0.19248
B         -3.21922       -1.62358        0.38935
B         -4.54769       -0.65597       -0.13745
B         -0.22956        1.70806        0.94029
B         -1.64278        2.52684        0.28525
B         -3.08409        1.78229        0.20548
B         -4.59401        1.00296        0.12247
B         -4.29366        2.52929       -0.72896
B         -2.87590        3.29404       -0.49086
B         -1.40583        4.03971       -0.57287
B         -0.11338        3.25870        0.19097
B          0.02387        4.57791       -0.66897
B          2.71274        3.21093        0.05146
B          1.42142        3.98482       -0.26013
B          2.55847        1.32781        0.75096
B          3.90200        2.28707        0.03304
B          4.02192        0.71351        0.36515
B          1.30534        2.32778        0.35788
B          1.09005       -2.53879        0.45208
B         -3.28872        0.10394        0.70672
B          1.23157        0.86153        1.61752
B         -4.54101       -2.33920       -0.50736
B          5.18131       -1.76433       -0.76727
B          5.31115       -0.18349       -0.13762
B          5.29274        1.48155       -0.40091
B          6.38413        0.63219       -1.09060
B          6.32101       -0.84811       -1.25366
B         -1.72272        0.83379        0.80356
B          0.95107        0.72384       -0.09271
B         -0.31811       -1.76466        1.03820
B         -5.69884       -1.43945       -0.92334
B         -5.78242        0.09843       -1.03091
B         -5.38015        1.57896       -1.17770
B         -0.19909       -0.00402        1.31409
