45
isomer_1365.log	Energy: -112995.4665815
B          2.56526       -1.64673        0.39063
B          2.56541       -3.31781       -0.04011
B          1.15112       -4.14521       -0.23932
B         -0.26945       -3.36318        0.30667
B          1.09828       -0.72795        0.69509
B         -1.72351       -0.83026        0.82065
B         -1.63054       -4.11753       -0.38669
B          3.90167       -0.77130        0.29453
B         -1.66518       -2.48085        0.22853
B          3.85467       -2.42759       -0.17927
B         -0.22808       -4.69971       -0.52212
B         -3.02724       -3.29048       -0.39446
B         -3.09666       -1.67673        0.18279
B         -4.54094       -0.82103       -0.28230
B         -0.36373        1.77192        0.91291
B         -1.72791        2.47236        0.29275
B         -3.14295        1.65554        0.23858
B         -4.54860        0.81893       -0.24886
B         -4.44797        2.41481       -0.52052
B         -3.09967        3.27767       -0.30488
B         -1.73090        4.12108       -0.28754
B         -0.35170        3.36561        0.38739
B         -0.32885        4.72501       -0.39892
B          2.46919        3.38867        0.05530
B          1.06772        4.17693       -0.14230
B          2.51870        1.72049        0.41057
B          3.82267        2.53800       -0.11697
B          3.89137        0.92782        0.31191
B          1.07515        2.58759        0.60712
B          1.13619       -2.57840        0.56269
B         -3.20406       -0.07640        0.60433
B          1.05075        0.91714        0.76571
B         -4.42512       -2.43664       -0.59401
B          5.10474       -1.58924       -0.68062
B          5.08297        0.04365       -0.42603
B          5.07486        1.77164       -0.62822
B          6.15616        0.89399       -1.22272
B          6.20677       -0.59343       -1.27660
B         -1.74748        0.85097        0.84352
B          1.64597        0.32614       -0.51116
B         -0.31482       -1.71887        0.87505
B         -5.76906       -1.57147       -0.75781
B         -5.91864        0.03476       -0.76509
B         -5.77269        1.57437       -0.75666
B          1.63615       -1.49428        1.89647
