45
isomer_1366.log	Energy: -111781.3230775
B          2.51088        1.85174       -0.44274
B          2.46018        3.48692       -0.05522
B          1.03534        4.29430        0.18708
B         -0.39770        3.42419       -0.36517
B          1.06465        0.97961       -0.75670
B         -1.80203        0.85945       -0.83282
B         -1.80509        4.16057        0.32958
B          3.98682        0.97382       -0.35793
B         -1.76117        2.48250       -0.26884
B          3.87988        2.66582        0.09647
B         -0.40178        4.85650        0.46646
B         -3.21121        3.26742        0.34664
B         -3.20224        1.64570       -0.22204
B         -4.63185        0.78378        0.27738
B         -0.31789       -1.73320       -0.90417
B         -1.68122       -2.44772       -0.27824
B         -3.14813       -1.65684       -0.23127
B         -4.60053       -0.84824        0.27084
B         -4.42250       -2.41322        0.51412
B         -3.10293       -3.28732        0.32618
B         -1.67135       -4.13804        0.30814
B         -0.29345       -3.34807       -0.37679
B         -0.25674       -4.79097        0.44380
B          2.58541       -3.37685       -0.04007
B          1.16631       -4.18591        0.17924
B          2.58813       -1.56989       -0.49346
B          3.99640       -2.47202        0.13053
B          4.02713       -0.73414       -0.36027
B          1.13934       -2.54475       -0.59959
B          1.06253        2.67392       -0.60150
B         -3.26313        0.09208       -0.62182
B          1.08953       -0.82163       -0.75884
B         -4.50509        2.35422        0.53207
B          5.21158        1.86520        0.61564
B          5.24041        0.22242        0.38706
B          5.27459       -1.60966        0.62669
B          6.39734       -0.62303        1.23546
B          6.37803        0.92030        1.23258
B         -1.77493       -0.82264       -0.83402
B          2.54317       -2.15961       -0.05245
B         -0.37050        1.82896       -0.89955
B         -5.97017        1.58528        0.74467
B         -6.12801       -0.11082        0.79896
B         -5.90991       -1.82011        0.79697
B          0.99188        0.23998       -0.49306
