45
isomer_1367.log	Energy: -113665.4686279
B          2.58535       -1.73803        0.55108
B          2.53132       -3.35372        0.01475
B          1.13527       -4.11760       -0.06870
B         -0.31650       -3.40025        0.67335
B         -0.36389        0.00029        1.12994
B         -1.79255       -0.88533        0.82605
B         -1.72879       -4.11200       -0.19264
B          3.99710       -0.88445        0.20155
B         -1.80462       -2.56589        0.46467
B          3.87234       -2.51800       -0.27024
B         -0.28386       -4.62013       -0.36054
B         -3.10718       -3.32130       -0.23292
B         -3.19510       -1.69834        0.35411
B         -4.53897       -0.86565       -0.26208
B         -0.34295        1.74322        1.09369
B         -1.80491        2.56612        0.46504
B         -3.19553        1.69838        0.35494
B         -4.53952        0.86582       -0.26074
B         -4.40552        2.49088       -0.74366
B         -3.10740        3.32129       -0.23278
B         -1.72937        4.11204       -0.19224
B         -0.31674        3.40080        0.67488
B         -0.28443        4.61942       -0.36085
B          2.53082        3.35374        0.01401
B          1.13495        4.11767       -0.06901
B          2.58457        1.73833        0.55023
B          3.87204        2.51805       -0.27047
B          3.99734        0.88493        0.20177
B          1.14118        2.53250        0.55723
B          1.14216       -2.53272        0.55847
B         -3.28494       -0.00017        0.56789
B          1.15169        0.85932        0.86486
B         -4.40566       -2.49131       -0.74358
B          5.12275       -1.69743       -0.83547
B          5.24783        0.00005       -0.49499
B          5.12288        1.69772       -0.83525
B          6.12818        0.75813       -1.59927
B          6.12849       -0.75794       -1.59880
B         -1.79244        0.88539        0.82478
B          2.63465        0.00023        0.76846
B         -0.34289       -1.74278        1.09372
B         -5.45529       -1.56540       -1.35116
B         -5.61955       -0.00044       -1.34354
B         -5.45406        1.56449       -1.35212
B          1.15176       -0.85992        0.86556
