45
isomer_1368.log	Energy: -112681.0222731
B         -2.59146        1.74111        0.40734
B         -2.56191        3.38398        0.03353
B         -1.15137        4.19996       -0.19256
B          0.29005        3.36290        0.36165
B         -1.14773        0.84718        0.71793
B          1.72473        0.85174        0.82276
B          1.68540        4.13879       -0.31313
B         -4.04965        0.88672        0.32260
B          1.66674        2.46391        0.26929
B         -3.96319        2.57141       -0.12704
B          0.26943        4.79884       -0.45565
B          3.10982        3.28434       -0.32791
B          3.12295        1.66076        0.22902
B          4.57418        0.83518       -0.26409
B          0.24657       -1.69451        0.87474
B          1.63483       -2.39887        0.23925
B          3.10121       -1.60330        0.21047
B          4.55757       -0.78159       -0.27145
B          4.38907       -2.34335       -0.53855
B          3.06523       -3.22030       -0.36909
B          1.63524       -4.06911       -0.36697
B          0.24471       -3.29983        0.32612
B          0.21842       -4.72403       -0.50733
B         -2.60528       -3.30188        0.00723
B         -1.20651       -4.12542       -0.23136
B         -2.63092       -1.66610        0.40109
B         -4.01211       -2.47304       -0.14850
B         -4.06666       -0.80103        0.31542
B         -1.20402       -2.50688        0.56351
B         -1.16638        2.56597        0.58271
B          3.19756        0.12111        0.61833
B         -1.16604       -0.76467        0.70589
B          4.42582        2.40656       -0.50909
B         -5.28241        1.78584       -0.64431
B         -5.29472        0.14958       -0.41663
B         -5.30997       -1.66054       -0.65534
B         -6.44990       -0.69505       -1.26106
B         -6.44477        0.84161       -1.25786
B          1.71571       -0.78980        0.81743
B         -1.39958       -0.95286        1.67335
B          0.28083        1.75605        0.88461
B          5.90236        1.65995       -0.71312
B          6.07665       -0.02502       -0.78472
B          5.87081       -1.72526       -0.80480
B          0.69867       -0.69103       -0.22372
