45
isomer_1370.log	Energy: -113009.7713953
B          2.72207       -1.69408        0.40916
B          2.58757       -3.32314       -0.07166
B          1.16521       -4.03513       -0.23282
B         -0.28982       -3.31365        0.36926
B          1.47042       -0.76826        0.80370
B         -1.84456       -0.78542        0.85477
B         -1.67750       -3.95559       -0.35235
B          4.09946       -0.81578        0.25743
B         -1.80479       -2.40051        0.26389
B          4.00905       -2.45622       -0.25613
B         -0.26366       -4.59706       -0.51516
B         -3.09645       -3.17369       -0.40067
B         -3.19750       -1.62247        0.13385
B         -4.56858       -0.78479       -0.37724
B         -0.46466        1.80140        0.99126
B         -1.79008        2.44762        0.31377
B         -3.19743        1.66998        0.20201
B         -4.56874        0.84497       -0.30900
B         -4.49811        2.47983       -0.66936
B         -3.10395        3.23687       -0.36790
B         -1.69187        4.07537       -0.33577
B         -0.32033        3.32805        0.42621
B         -0.28927        4.65693       -0.44573
B          2.52234        3.34080        0.05607
B          1.11500        4.02082       -0.10659
B          2.75653        1.74479        0.41819
B          4.02919        2.57418       -0.19195
B          4.11730        0.92249        0.26967
B          1.25151        2.48626        0.65125
B          1.31697       -2.58065        0.58342
B         -3.30423       -0.02910        0.54319
B          1.67386        0.74125        0.72252
B         -4.53170       -2.42983       -0.70586
B          5.23838       -1.66246       -0.82588
B          5.28465        0.03047       -0.54640
B          5.25755        1.77042       -0.76356
B          6.33399        0.80149       -1.48748
B          6.32752       -0.69658       -1.52606
B         -1.83560        0.83500        0.86389
B          0.57077       -1.55415        1.83284
B         -0.49899       -1.73295        0.99158
B         -5.79502       -1.59041       -0.96644
B         -5.97187        0.02903       -0.99955
B         -5.77102        1.59354       -1.01213
B          0.52638        0.57034        1.50774
