45
isomer_1372.log	Energy: -113469.0088230
B          2.27068        1.82599       -0.00540
B          2.31718        3.55096        0.03390
B          0.91186        4.26210        0.04096
B         -0.47742        3.39622       -0.48444
B          1.14375        0.94565       -0.80678
B         -1.78635        0.81769       -0.98043
B         -1.91018        4.11618        0.13594
B          3.57022        1.10764        0.57709
B         -1.89645        2.48096       -0.56361
B          3.61496        2.74015        0.42607
B         -0.54594        4.80161        0.24090
B         -3.24962        3.18696        0.11819
B         -3.24078        1.58679       -0.36110
B         -4.57708        0.62404        0.06571
B         -0.15260       -1.71030       -1.20531
B         -1.50011       -2.49853       -0.35235
B         -2.97912       -1.79644       -0.24990
B         -4.41789       -1.05594        0.11932
B         -4.08848       -2.58918        0.83602
B         -2.67993       -3.36173        0.39294
B         -1.24302       -4.00600        0.39479
B          0.00937       -3.24364       -0.65557
B          0.28397       -4.44081        0.44983
B          2.77125       -3.16442       -0.52106
B          1.59623       -4.20509       -0.28556
B          2.22885       -1.55591        0.25915
B          3.88126       -2.18181        0.02336
B          3.62531       -0.65010        0.46934
B          1.44631       -2.35709       -1.19313
B          1.06024        2.67083       -0.72644
B         -3.28072       -0.12875       -0.73293
B          1.27938       -0.65003       -0.81961
B         -4.51863        2.30372        0.57905
B          5.04158        1.94726        0.71445
B          4.91451        0.26766        0.92895
B          5.18923       -1.31718        0.43148
B          6.40476       -0.35940        0.58096
B          6.32940        1.11235        0.72535
B         -1.63024       -0.87209       -0.89903
B          1.24559       -2.80239        0.57705
B         -0.39621        1.81448       -1.09703
B         -5.52313        1.31292        1.15789
B         -5.56710       -0.22395        1.23666
B         -5.20679       -1.73849        1.35141
B         -0.26810        0.03714       -0.92709
