45
isomer_1373.log	Energy: -113359.5445903
B         -2.66368       -1.76943       -0.87506
B         -2.60826       -3.25642        0.43720
B         -1.22520       -3.96755        0.67555
B          0.20192       -3.26894       -0.08296
B         -1.26265       -0.66493       -1.14333
B          1.62986       -0.81030       -0.95390
B          1.58169       -3.99916        0.53064
B         -3.92269       -0.83861       -0.31112
B          1.65866       -2.51763       -0.53008
B         -3.80429       -2.35757        0.34128
B          0.23056       -4.50031        0.93467
B          2.96127       -3.20815        0.28670
B          3.05349       -1.69594       -0.27726
B          4.44418       -0.81651        0.17699
B          0.33921        1.85184       -0.87870
B          1.74242        2.55023       -0.34261
B          3.14375        1.70827       -0.23543
B          4.59563        0.81289       -0.08853
B          4.42129        2.42722        0.63048
B          3.09312        3.28313        0.33398
B          1.72069        4.15927        0.42231
B          0.32893        3.41836       -0.36016
B          0.32327        4.72050        0.58188
B         -2.49836        3.41182        0.08776
B         -1.11866        4.16709        0.29528
B         -2.54122        1.72040       -0.55316
B         -3.82731        2.56270        0.14822
B         -3.92980        0.97196       -0.34760
B         -1.15657        2.59533       -0.40055
B         -1.32608       -2.71835       -0.45428
B          3.22319       -0.00852       -0.64457
B         -1.17501        0.91405       -0.87582
B          4.38333       -2.46090        0.60937
B         -5.09436       -1.49186        0.77658
B         -5.11315        0.10320        0.32998
B         -5.16145        1.77969        0.59150
B         -6.15016        0.90962        1.36765
B         -6.09648       -0.56647        1.48507
B          1.71751        0.84012       -0.74592
B         -1.36197       -2.01442       -1.90298
B          0.19377       -1.83115       -1.16660
B          5.56062       -1.61427        1.00414
B          5.75284       -0.06674        1.01661
B          5.51908        1.45408        1.05278
B          0.21709        0.08237       -0.94600
