45
isomer_1374.log	Energy: -113532.9933111
B          2.22871        1.88318       -0.15181
B          2.03708        3.44136        0.42039
B          0.53452        4.11633        0.47403
B         -0.75809        3.26105       -0.26584
B          0.90309        0.85518       -0.64297
B         -1.87668        0.63556       -0.87443
B         -2.27262        3.94318        0.16288
B          3.78858        1.27343       -0.19493
B         -2.09321        2.29862       -0.58364
B          3.51625        2.80736        0.52004
B         -0.94043        4.61169        0.53751
B         -3.56581        3.02611       -0.10899
B         -3.49083        1.42794       -0.57633
B         -4.83910        0.40543       -0.41400
B         -0.20089       -1.75530       -1.17772
B         -1.45613       -2.48109       -0.19567
B         -2.90772       -1.80777       -0.10239
B         -4.42489       -1.11224        0.20106
B         -4.05791       -2.56741        1.00940
B         -2.54704       -3.20793        0.80139
B         -1.05805       -3.71252        0.91226
B          0.05697       -3.24942       -0.39651
B          0.50280       -3.94397        1.02283
B          2.85232       -3.09119       -0.57250
B          1.69570       -3.92641        0.06268
B          2.60137       -1.46567       -0.44289
B          4.17887       -2.10309       -0.28029
B          3.99045       -0.45935       -0.47285
B          1.35117       -2.50476       -1.30412
B          0.76334        2.55338       -0.21718
B         -3.33780       -0.29036       -0.83697
B          1.04069       -0.81359       -0.52649
B         -4.84665        2.12755        0.15723
B          4.94041        2.12060        0.77351
B          5.17067        0.48752        0.28539
B          5.39161       -1.22655        0.22309
B          6.44840       -0.22264        0.90002
B          6.24793        1.25888        1.14457
B         -1.69684       -0.96945       -1.02890
B          1.32405       -2.28310        0.47728
B         -0.59079        1.60793       -0.77723
B         -5.81661        1.07567        0.68495
B         -5.84629       -0.42555        0.87420
B         -5.38750       -1.89825        1.20381
B          2.44688        0.29965       -0.70388
