45
isomer_1375.log	Energy: -113743.3992227
B          1.59153        2.02145        0.17178
B          0.83096        2.75415        1.42878
B         -0.68215        3.33137        1.28510
B         -1.56595        2.91127       -0.11522
B          0.49651        0.91332       -1.17058
B         -2.23124        0.49713       -1.41059
B         -3.25768        3.11851        0.36358
B          3.27405        1.63417        0.46540
B         -2.82453        1.99176       -0.87547
B          2.15635        2.03454        1.77659
B         -2.11948        3.72995        1.17557
B         -4.34557        2.09724       -0.17701
B         -3.87395        0.66473       -0.87309
B         -4.73337       -0.72928       -0.48905
B          0.48625       -0.85469       -1.19667
B         -0.44674       -1.95792       -0.28697
B         -2.05455       -1.99741       -0.16493
B         -3.77528       -2.03969       -0.03432
B         -2.84595       -3.18589        0.84347
B         -1.23035       -3.11848        0.66682
B          0.37621       -3.05621        0.92093
B          1.22803       -1.91130        0.06068
B          1.85769       -2.86523        1.15569
B          3.87311       -1.32205       -0.70847
B          3.01452       -1.84741        0.68909
B          3.21965       -0.17042       -2.18113
B          4.75318       -0.47846       -1.90914
B          4.08979        0.65454       -0.77448
B          2.20939       -0.84670       -0.80378
B         -0.00537        2.29484       -0.04545
B         -3.09047       -0.86961       -1.01178
B          1.60278        0.09340       -2.18432
B         -5.32755        0.82163        0.04949
B          3.26686        0.87471        2.08686
B          4.57320        0.60128        0.85050
B          5.43532       -0.51485       -0.49012
B          4.80648       -1.15080        0.84654
B          3.85237       -0.60576        1.98850
B         -1.14640       -0.61213       -1.06173
B          2.82398       -0.07539        0.63364
B         -1.07175        1.57256       -1.07247
B         -5.87110       -0.46496        0.63379
B         -5.30416       -1.88335        0.81353
B         -4.34559       -3.05613        1.07269
B          2.33095        1.00156       -0.94228
