45
isomer_1376.log	Energy: -112280.4464410
B         -2.60098        1.74603        0.41684
B         -2.58441        3.38458        0.03939
B         -1.17337        4.20940       -0.19608
B          0.27770        3.37043        0.35903
B         -1.14646        0.84781        0.72744
B          1.72797        0.86572        0.82518
B          1.67405        4.15144       -0.32258
B         -4.06278        0.87787        0.33562
B          1.65756        2.47122        0.26678
B         -3.99447        2.57032       -0.11821
B          0.25247        4.82094       -0.46706
B          3.10261        3.29876       -0.33219
B          3.12020        1.67633        0.23180
B          4.57878        0.85851       -0.25992
B          0.28326       -1.68487        0.88145
B          1.66571       -2.38449        0.26008
B          3.12568       -1.58460        0.22730
B          4.58150       -0.76053       -0.26216
B          4.41757       -2.31812       -0.51024
B          3.11353       -3.20551       -0.34116
B          1.68784       -4.06301       -0.33391
B          0.28888       -3.28858        0.34984
B          0.26851       -4.73688       -0.48025
B         -2.57317       -3.31145        0.03016
B         -1.15938       -4.13087       -0.20759
B         -2.59524       -1.67401        0.41212
B         -3.98596       -2.50150       -0.12521
B         -4.05994       -0.81054        0.33329
B         -1.16443       -2.49612        0.57970
B         -1.17294        2.57247        0.58670
B          3.20442        0.14545        0.62667
B         -1.14374       -0.77178        0.72521
B          4.40963        2.41621       -0.50371
B         -5.31523        1.76406       -0.62898
B         -5.31061        0.13258       -0.39730
B         -5.30942       -1.69827       -0.63376
B         -6.47378       -0.74458       -1.23960
B         -6.47638        0.80814       -1.23746
B          1.73073       -0.78031        0.82291
B         -1.19359       -0.78829        1.72408
B          0.27747        1.76525        0.88621
B          5.92031        1.70799       -0.71246
B          6.11852       -0.00483       -0.77901
B          5.92367       -1.73513       -0.78783
B          0.08770       -0.98725       -0.77112
