45
isomer_1377.log	Energy: -113406.4062187
B         -2.64740        1.66183        0.66155
B         -2.59426        3.23949       -0.08843
B         -1.30382        4.09559       -0.05834
B          0.14193        3.44062        0.75877
B         -1.17876        0.85540        0.97569
B          1.54705        0.83779        0.34577
B          1.48598        4.17208       -0.18537
B         -3.92225        0.79478        0.08699
B          1.56391        2.60022        0.39564
B         -3.83976        2.36266       -0.31240
B          0.04556        4.70335       -0.28874
B          2.86115        3.38559       -0.28834
B          2.98838        1.75800        0.11218
B          4.40559        0.93605       -0.22523
B          0.30698       -1.67730        1.03987
B          1.81500       -2.49252        0.58768
B          3.18811       -1.62319        0.41342
B          4.49719       -0.74891       -0.20287
B          4.43789       -2.42617       -0.58489
B          3.13486       -3.24073       -0.08027
B          1.78360       -4.08805       -0.06919
B          0.34041       -3.31352        0.45305
B          0.38317       -4.73931       -0.24887
B         -2.44555       -3.35876       -0.14448
B         -1.03820       -4.14920       -0.10817
B         -2.51134       -1.70843        0.30049
B         -3.82038       -2.56792       -0.23210
B         -3.88052       -0.92796       -0.01281
B         -1.19039       -2.58941        0.61979
B         -1.28983        2.55395        0.82305
B          3.20338        0.06753        0.57309
B         -1.18667       -0.78849        0.66712
B          4.16798        2.52733       -0.85672
B         -5.21580        1.51336       -0.74762
B         -5.22330       -0.11968       -0.30026
B         -5.15440       -1.77318       -0.75818
B         -6.22297       -0.87599       -1.38103
B         -6.28767        0.61468       -1.35477
B          1.73056       -0.78047        0.93494
B          0.27072        0.09800        1.67658
B          0.25341        1.80466        1.19204
B          5.19404        1.58939       -1.46231
B          5.53077        0.06873       -1.34178
B          5.43873       -1.49327       -1.24871
B          0.23692       -0.19860       -0.03582
