45
isomer_1378.log	Energy: -113435.9312785
B          2.46234       -1.50822        0.25312
B          2.74098       -3.55841        0.10153
B          1.20793       -3.96123       -0.27928
B         -0.32420       -3.30068        0.53999
B          1.01270       -0.67445        0.90783
B         -1.79765       -0.77139        0.86211
B         -1.67515       -4.08272       -0.16591
B          3.95673       -0.73553        0.41300
B         -1.77617       -2.47321        0.52102
B          3.81591       -2.44441       -0.24527
B         -0.25907       -4.54579       -0.45883
B         -3.10617       -3.28272       -0.10957
B         -3.21298       -1.72241        0.33869
B         -4.61787       -0.82301       -0.06480
B         -0.42078        1.73381        0.84381
B         -1.84098        2.49673        0.35620
B         -3.28678        1.70991        0.21161
B         -4.73489        0.82519        0.12860
B         -4.57393        2.44153       -0.60674
B         -3.19995        3.25243       -0.32499
B         -1.80876        4.09816       -0.42892
B         -0.42704        3.38745        0.28874
B         -0.40899        4.70352       -0.59521
B          2.42576        3.40166       -0.01212
B          1.00617        4.15704       -0.26432
B          2.51334        1.85475        0.55539
B          3.87743        2.62912       -0.10007
B          3.94854        0.99887        0.45095
B          1.06425        2.60756        0.53125
B          0.96037       -2.27086        0.18651
B         -3.31993        0.02975        0.64671
B          1.01927        0.90505        0.93252
B         -4.49781       -2.49163       -0.49624
B          5.13391       -1.52540       -0.59616
B          5.24420        0.11981       -0.17125
B          5.18073        1.87022       -0.49953
B          6.24057        0.94238       -1.15232
B          6.23387       -0.57905       -1.20844
B         -1.77820        0.83527        0.72594
B          2.09716       -2.56630       -0.94897
B         -0.39357       -1.59445        0.97606
B         -5.67230       -1.61859       -0.93417
B         -5.87952       -0.06581       -0.94739
B         -5.66543        1.46387       -1.01532
B          2.53594        0.13218        0.85425
