45
isomer_1379.log	Energy: -113525.1933552
B         -2.36222       -1.59797       -0.55768
B         -1.95518       -3.16785        0.23153
B         -1.13334       -4.22692       -0.64765
B          0.32622       -3.38920       -1.42678
B         -1.24866       -0.76482       -1.33302
B          1.63251       -0.74108       -0.90391
B          1.48957       -4.06923       -0.03731
B         -3.60339       -0.84032        0.09686
B          1.31160       -2.33309       -0.05937
B         -3.26046       -2.33688        0.67656
B          0.27864       -4.81360       -0.48617
B          2.74521       -3.14713        0.45077
B          2.86746       -1.61769       -0.02193
B          4.14025       -0.65507        0.64613
B          0.21685        1.84931       -1.21314
B          1.59421        2.62701       -0.59369
B          2.97198        1.83355       -0.17973
B          4.36936        0.94091        0.21631
B          4.12739        2.63270        0.76428
B          2.86755        3.45899        0.18506
B          1.48685        4.26907        0.06838
B          0.13819        3.45219       -0.70684
B          0.06961        4.82657        0.09462
B         -2.64532        3.38097       -0.22394
B         -1.32944        4.19096       -0.18576
B         -2.63440        1.61354       -0.80253
B         -3.82052        2.48677        0.12970
B         -3.88503        0.86461       -0.14536
B         -1.32532        2.57088       -0.94009
B         -1.17270       -2.53650       -1.23822
B          3.09734        0.08205       -0.46794
B         -1.29329        0.90609       -1.36634
B          3.99087       -2.32312        1.09343
B         -4.49869       -1.60051        1.38948
B         -4.88883       -0.05563        0.77475
B         -4.94700        1.61397        0.95888
B         -5.68650        0.74628        1.98288
B         -5.45051       -0.70782        2.19163
B          1.58024        0.94855       -0.78545
B         -0.13735       -3.10584        0.29926
B          0.33982       -1.71537       -1.37197
B          5.06827       -1.40773        1.67903
B          5.28617        0.13970        1.60105
B          5.08683        1.67138        1.45126
B          0.19513        0.04733       -1.28703
