45
isomer_1380.log	Energy: -112165.8806875
B         -2.61629        1.72531        0.40227
B         -2.57817        3.37010        0.03748
B         -1.16147        4.19564       -0.19165
B          0.29153        3.35771        0.35220
B         -1.19593        0.81460        0.70310
B          1.74306        0.84254        0.80134
B          1.68782        4.13703       -0.32868
B         -4.06128        0.85920        0.31413
B          1.67789        2.45785        0.25177
B         -3.99085        2.55274       -0.12449
B          0.26722        4.79853       -0.46199
B          3.11558        3.28288       -0.34693
B          3.13432        1.65786        0.20683
B          4.58889        0.83498       -0.29205
B          0.28605       -1.72848        0.83756
B          1.67338       -2.41893        0.20788
B          3.13096       -1.61761        0.18027
B          4.58252       -0.78971       -0.30350
B          4.42157       -2.34935       -0.56819
B          3.10904       -3.23380       -0.40130
B          1.68246       -4.08935       -0.40056
B          0.28371       -3.32771        0.28767
B          0.26275       -4.75355       -0.55048
B         -2.58342       -3.34027       -0.03446
B         -1.16490       -4.15943       -0.27711
B         -2.60572       -1.70260        0.36556
B         -3.99155       -2.51544       -0.18110
B         -4.06151       -0.83652        0.29426
B         -1.17844       -2.53903        0.52355
B         -1.17687        2.55718        0.57489
B          3.21632        0.11313        0.59217
B         -1.16446       -0.81000        0.68608
B          4.43017        2.40186       -0.53059
B         -5.30625        1.75339       -0.64333
B         -5.30281        0.11654       -0.42696
B         -5.30198       -1.70248       -0.68064
B         -6.45565       -0.74094       -1.27572
B         -6.46254        0.80188       -1.26121
B          1.74151       -0.81464        0.78575
B         -0.74187       -1.65033        1.85235
B          0.30145        1.75659        0.87069
B          5.91841        1.66930       -0.74208
B          6.10542       -0.02525       -0.81581
B          5.91004       -1.74089       -0.83624
B         -0.46010        0.82948        0.54727
