45
isomer_1381.log	Energy: -113523.3530500
B          2.63133        1.68149       -0.60291
B          2.63888        3.28066       -0.05440
B          1.25314        4.08641        0.20662
B         -0.22174        3.34756       -0.25249
B          1.14105        0.81786       -0.88333
B         -1.66487        0.84096       -0.58128
B         -1.57200        4.14255        0.42664
B          4.03855        0.79548       -0.47790
B         -1.65970        2.49751       -0.25008
B          4.00838        2.46364        0.01411
B         -0.13755        4.69448        0.56495
B         -3.01233        3.38041        0.30505
B         -3.15244        1.80293       -0.20312
B         -4.64168        1.01571       -0.17680
B         -0.39234       -1.62948       -0.87859
B         -1.81208       -2.48710       -0.37378
B         -3.23104       -1.59181       -0.34123
B         -4.62090       -0.65031        0.00549
B         -4.59564       -2.28811        0.47570
B         -3.26590       -3.19990        0.08797
B         -1.97057       -4.06225        0.18024
B         -0.33362       -3.36141       -0.63196
B         -0.60995       -4.32887        0.69953
B          2.20469       -3.06271        0.49643
B          0.83397       -3.77835        0.64690
B          2.43909       -1.83034       -0.64368
B          3.68697       -2.39906        0.45089
B          3.93736       -0.95101       -0.31405
B          1.13691       -2.76310       -1.12636
B          1.22097        2.49625       -0.54056
B         -3.26166        0.13518       -0.66907
B          1.04402       -0.84116       -0.80770
B         -4.40206        2.64669        0.56967
B          5.29235        1.62924        0.43532
B          5.33103       -0.08300        0.17260
B          5.05487       -1.70100        0.75544
B          6.20660       -0.77547        1.33092
B          6.32882        0.70776        1.15886
B         -1.78853       -0.76529       -0.74340
B          2.58966       -0.02990       -0.84720
B         -0.28706        1.66393       -0.75029
B         -5.53597        1.69936        0.97708
B         -5.84763        0.20579        0.87891
B         -5.72731       -1.37177        0.88429
B          0.72594       -2.08044        0.42658
