45
isomer_1383.log	Energy: -113478.6743777
B         -2.52939        1.65124        0.57244
B         -2.49726        3.31213       -0.04965
B         -1.12496        4.09484       -0.26997
B          0.31188        3.38732        0.35685
B         -1.16122        0.90180        1.02491
B          1.77751        0.90114        0.93898
B          1.69162        4.14752       -0.41799
B         -3.94367        0.91918        0.29218
B          1.75388        2.55748        0.43393
B         -3.83961        2.50057       -0.10095
B          0.28407        4.69331       -0.57162
B          3.06451        3.29722       -0.36245
B          3.15003        1.75846        0.22021
B          4.49394        0.79790       -0.21961
B          0.18388       -1.58750        0.38630
B          1.66349       -2.46951        0.36310
B          3.11923       -1.69613        0.39885
B          4.58313       -0.83797        0.16696
B          4.39690       -2.46103       -0.43592
B          3.03218       -3.30540       -0.05534
B          1.65865       -4.12752       -0.12244
B          0.14350       -3.31243        0.57435
B          0.30805       -4.54495       -0.53797
B         -2.47876       -3.12671       -0.42524
B         -1.11559       -3.88552       -0.48355
B         -2.56885       -1.70134        0.61185
B         -3.83783       -2.30999       -0.38997
B         -3.94549       -0.82332        0.25319
B         -1.31525       -2.73357        1.06098
B         -1.17188        2.60365        0.64997
B          3.25731        0.06014        0.67015
B         -1.27557       -0.73531        0.74947
B          4.42018        2.45965       -0.73350
B         -5.22765        1.72148       -0.50174
B         -5.29158        0.07136       -0.09684
B         -5.22184       -1.52467       -0.65562
B         -6.32233       -0.60525       -1.21685
B         -6.32305        0.87005       -1.13546
B          1.67215       -0.74889        0.70906
B         -1.11544       -2.05688       -0.55349
B          0.34467        1.86461        1.04502
B          5.56094        1.52626       -1.14038
B          5.73209       -0.01955       -1.05373
B          5.45504       -1.54021       -0.99479
B          0.24838        0.05633        1.04634
