45
isomer_1384.log	Energy: -111580.2511778
B         -2.61552       -1.61848       -0.44363
B         -2.61642       -3.25508       -0.05746
B         -1.21443       -4.09233        0.18798
B          0.24693       -3.27050       -0.36580
B         -1.15110       -0.73613       -0.75320
B          1.72337       -0.78254       -0.83944
B          1.63291       -4.06141        0.32547
B         -4.06909       -0.73571       -0.37281
B          1.63512       -2.38429       -0.27283
B         -4.01908       -2.42631        0.09024
B          0.20431       -4.71627        0.46785
B          3.06967       -3.22264        0.33624
B          3.10530       -1.60350       -0.23625
B          4.56984       -0.79729        0.25693
B          0.30384        1.78165       -0.91493
B          1.69061        2.47109       -0.29179
B          3.14256        1.65721       -0.24898
B          4.58835        0.82163        0.25061
B          4.43865        2.38203        0.48979
B          3.14400        3.28117        0.31084
B          1.72678        4.15245        0.29340
B          0.32302        3.38804       -0.39180
B          0.31354        4.84088        0.43053
B         -2.53990        3.44048       -0.08360
B         -1.11912        4.24735        0.15541
B         -2.57644        1.80131       -0.45698
B         -3.96112        2.64515        0.07043
B         -4.04980        0.95258       -0.37940
B         -1.13703        2.60856       -0.62323
B         -1.19496       -2.45968       -0.60344
B          3.20599       -0.07563       -0.63888
B         -1.13259        0.88334       -0.75953
B          4.38455       -2.35196        0.50828
B         -5.33390       -1.60452        0.59149
B         -5.31246        0.02558        0.35120
B         -5.29434        1.85756        0.57797
B         -6.47030        0.91849        1.18422
B         -6.48805       -0.63411        1.19028
B          1.74218        0.86337       -0.84586
B         -0.47779       -1.03013        1.43559
B          0.26442       -1.66822       -0.90146
B          5.90124       -1.65737        0.71928
B          6.11589        0.05377        0.77754
B          5.93790        1.78590        0.77643
B         -0.63752       -1.67547       -1.29669
