45
isomer_1385.log	Energy: -113441.9669093
B          2.47403       -1.74186        0.39476
B          2.65942       -3.19414       -0.79684
B          1.38193       -4.10425       -0.81141
B          0.07448       -3.24244        0.39332
B          1.28502       -0.63323        1.02467
B         -1.68445       -0.78817        1.00743
B         -1.38315       -3.97950       -0.24390
B          3.68443       -0.64630       -0.00560
B         -1.55410       -2.48781        0.56684
B          3.73676       -2.13630       -0.65224
B         -0.05326       -4.50005       -0.66282
B         -2.83131       -3.27136       -0.16945
B         -3.02598       -1.74275        0.31720
B         -4.41184       -0.90536       -0.21466
B         -0.39828        1.88180        0.97130
B         -1.84634        2.55150        0.45866
B         -3.21325        1.68020        0.16277
B         -4.64449        0.72978        0.04670
B         -4.49763        2.36490       -0.69036
B         -3.19184        3.24820       -0.35120
B         -1.83140        4.13240       -0.42247
B         -0.43927        3.42745        0.33856
B         -0.45191        4.75239       -0.56175
B          2.37608        3.45106       -0.10982
B          0.98207        4.21724       -0.27824
B          2.45269        1.82305        0.47029
B          3.79976        2.69037       -0.15634
B          3.73147        1.01751       -0.01005
B          1.09011        2.68616        0.57300
B          1.81840       -3.42185        0.59145
B         -3.25523       -0.02632        0.65328
B          1.14863        0.95885        1.03569
B         -4.26711       -2.56198       -0.59742
B          5.16271       -1.31748       -0.68568
B          5.17707        0.23540       -0.08135
B          5.12937        1.93398       -0.50912
B          6.24442        1.00758       -1.06558
B          6.36799       -0.47425       -1.00530
B         -1.77447        0.86188        0.72300
B          1.16882       -2.28506        1.42037
B         -0.27823       -1.65401        1.30419
B         -5.44761       -1.75289       -1.08458
B         -5.69603       -0.20980       -1.10585
B         -5.51947        1.33086       -1.14677
B         -0.24901        0.09461        0.96535
