45
isomer_1387.log	Energy: -113389.5536230
B          2.44181        1.69150       -0.68027
B          2.46312        3.49081       -0.09930
B          1.11670        4.26457        0.09115
B         -0.35835        3.50903       -0.45753
B          1.08162        1.10325       -1.20941
B         -1.63857        0.86027       -0.74534
B         -1.70454        4.20299        0.37271
B          3.73694        0.93189       -0.15689
B         -1.75113        2.58644       -0.48739
B          3.67930        2.56623        0.13566
B         -0.32095        4.81546        0.45512
B         -3.04289        3.29737        0.36382
B         -3.08530        1.71170       -0.14963
B         -4.47118        0.79162        0.19069
B         -0.20557       -1.83712       -1.19795
B         -1.62367       -2.54790       -0.64683
B         -3.00163       -1.71524       -0.25622
B         -4.41275       -0.85427        0.16497
B         -4.25927       -2.51005        0.66233
B         -2.92883       -3.28656        0.16966
B         -1.57522       -4.13416        0.26495
B         -0.17664       -3.38073       -0.35457
B         -0.22897       -4.72737        0.52800
B          2.55707       -3.36203        0.41119
B          1.21604       -4.15658        0.43903
B          2.56549       -1.75254       -0.65662
B          3.75074       -2.40328        0.47294
B          3.72594       -0.83428       -0.04870
B          1.42855       -2.99249       -0.73618
B          1.12874        2.72529       -0.72757
B         -3.15604       -0.00596       -0.54692
B          1.66325       -0.35124       -1.08129
B         -4.32004        2.42749        0.81784
B          4.94559        1.77812        0.76944
B          4.91978        0.11040        0.57671
B          4.96458       -1.51245        1.01067
B          5.95246       -0.54909        1.68300
B          5.96122        0.93422        1.55478
B         -1.56118       -0.80074       -0.86367
B          1.32445       -1.76482       -1.75106
B         -0.37775        1.95062       -1.09662
B         -5.36738        1.45106        1.34480
B         -5.55291       -0.08597        1.28135
B         -5.35095       -1.63282        1.22076
B         -0.15170       -0.00264       -1.03164
