45
isomer_1388.log	Energy: -113380.1585556
B          2.60020       -1.62990        0.59671
B          2.41008       -3.19791       -0.15156
B          0.98257       -3.93927       -0.22697
B         -0.49129       -3.29350        0.60091
B          1.25037       -0.84467        1.13968
B         -1.83498       -0.90561        1.17706
B         -1.75501       -3.89490       -0.64802
B          3.99369       -0.89596        0.19854
B         -2.18737       -2.80278        0.60918
B          3.76866       -2.40857       -0.35022
B         -0.37824       -4.43680       -0.58544
B         -3.11710       -3.06402       -0.73445
B         -3.08982       -1.56423       -0.05983
B         -4.33585       -0.53252       -0.58015
B         -0.13814        1.66651        0.74453
B         -1.56460        2.54791        0.63303
B         -2.98555        1.80901        0.32252
B         -4.46850        1.03050       -0.00000
B         -4.21141        2.70470       -0.44841
B         -2.82591        3.43429       -0.04634
B         -1.44516        4.21808       -0.08831
B         -0.07017        3.24979        0.25523
B         -0.01476        4.74808       -0.27376
B          2.72984        3.29010       -0.07962
B          1.39120        4.09250       -0.15631
B          2.74265        1.59200        0.62113
B          3.99008        2.41755       -0.23014
B          4.10916        0.84075        0.21806
B          1.35916        2.34391        0.23426
B          1.15563       -2.49296        0.57630
B         -3.16304        0.05708        0.49500
B          1.37989        0.79810        0.96693
B         -4.36384       -2.14019       -1.16650
B          5.16647       -1.71368       -0.80594
B          5.32007       -0.08885       -0.35402
B          5.29767        1.54955       -0.75252
B          6.28158        0.61460       -1.49117
B          6.24517       -0.87681       -1.48525
B         -1.62391        0.78646        0.88342
B         -0.18591       -0.03308        1.10277
B         -0.14585       -1.74445        1.42031
B         -5.44314       -1.14594       -1.55638
B         -5.58247        0.37865       -1.33008
B         -5.30617        1.86958       -1.08872
B         -1.44595       -2.39311        1.89455
