45
isomer_0139.log	Energy: -113525.2312116
B          2.63055        1.62097       -0.80263
B          2.63761        3.38722       -0.22144
B          1.32045        4.19495       -0.18467
B         -0.14630        3.45410       -0.70673
B          1.29259        0.91024       -1.36734
B         -1.57926        0.94690       -0.77882
B         -1.49602        4.26668        0.06968
B          3.87801        0.87009       -0.14185
B         -1.60112        2.62682       -0.59911
B          3.81332        2.49295        0.13319
B         -0.08010        4.82709        0.09724
B         -2.87447        3.45346        0.18743
B         -2.97160        1.82648       -0.17181
B         -4.37293        0.93311        0.20993
B         -0.33549       -1.71383       -1.37064
B         -1.30363       -2.33513       -0.05602
B         -2.85808       -1.61895       -0.00933
B         -4.14642       -0.66379        0.63937
B         -3.98797       -2.32923        1.09477
B         -2.73545       -3.14926        0.45965
B         -1.47976       -4.07038       -0.03194
B         -0.32237       -3.38674       -1.42619
B         -0.27064       -4.81319       -0.48848
B          1.96433       -3.16764        0.22597
B          1.14086       -4.22525       -0.65361
B          2.36909       -1.59325       -0.56318
B          3.26851       -2.33699        0.67027
B          3.61085       -0.84154        0.09678
B          1.17764       -2.53387       -1.23896
B          1.31971        2.57574       -0.93722
B         -3.09520        0.07634       -0.46530
B          1.25198       -0.76214       -1.33414
B         -4.13505        2.62534        0.76093
B          4.93990        1.62239        0.96193
B          4.88721       -0.04626        0.77556
B          4.50701       -1.59674        1.38555
B          5.45629       -0.70222        2.18818
B          5.68307        0.75414        1.98452
B         -1.62857       -0.74279       -0.89952
B          0.14740       -3.10770        0.29970
B         -0.22021        1.85072       -1.21358
B         -5.09553        1.66107        1.44329
B         -5.29447        0.12951        1.59244
B         -5.07306       -1.41754        1.67248
B         -0.19266        0.04812       -1.28633
