45
isomer_1391.log	Energy: -112741.5751735
B          2.77849       -1.65962        0.38917
B          2.56617       -3.39398        0.02860
B          1.13786       -4.21091       -0.20969
B         -0.41803       -3.38874        0.30132
B          1.57560       -0.42138        0.65500
B         -1.90074       -0.83429        0.78332
B         -1.86030       -4.07366       -0.38844
B          4.09367       -0.88379        0.32471
B         -1.97736       -2.43888        0.18972
B          3.99380       -2.53866       -0.10049
B         -0.37539       -4.66887       -0.47327
B         -3.32402       -3.21644       -0.42667
B         -3.30205       -1.59296        0.13924
B         -4.69877       -0.68254       -0.33442
B         -0.09412        1.74522        0.80465
B         -1.55900        2.47811        0.20995
B         -3.07436        1.71551        0.17952
B         -4.56550        0.94153       -0.29793
B         -4.36316        2.53082       -0.57380
B         -2.91867        3.32149       -0.35015
B         -1.45763        4.11353       -0.34289
B         -0.07608        3.35042        0.29553
B         -0.04028        4.66704       -0.48567
B          2.74144        3.31035       -0.03696
B          1.38497        4.11279       -0.24186
B          2.79579        1.67523        0.36979
B          4.12640        2.40470       -0.17756
B          4.14162        0.81555        0.30272
B          1.42954        2.53428        0.51326
B          1.29506       -2.63232        0.52773
B         -3.29097       -0.02034        0.55380
B          1.42658        0.86135        0.67942
B         -4.69831       -2.30580       -0.63779
B          5.27393       -1.80050       -0.61778
B          5.30799       -0.13675       -0.40358
B          5.34459        1.58250       -0.64304
B          6.40078        0.61439       -1.21547
B          6.41228       -0.85809       -1.22120
B         -1.75313        0.84280        0.75951
B          0.42524       -1.36332        0.71992
B         -0.71241       -1.78092        0.86880
B         -5.93439       -1.35630       -0.77858
B         -5.98942        0.25337       -0.79495
B         -5.69823        1.78466       -0.76942
B         -0.56949        0.60342        1.92592
