45
isomer_1392.log	Energy: -113467.9438453
B         -2.70000        1.59115        0.75297
B         -2.67519        3.23134        0.08254
B         -1.34532        4.05893       -0.07587
B          0.20477        3.35126        0.56143
B         -1.26164        0.83063        0.93885
B          1.53622        0.67756        0.16096
B          1.49817        4.08880       -0.38538
B         -4.05169        0.74222        0.38508
B          1.55330        2.44682        0.10586
B         -4.02367        2.33857        0.00554
B          0.06137        4.60402       -0.42271
B          2.90908        3.29248       -0.40683
B          2.98667        1.66878       -0.06398
B          4.53142        0.95713        0.13151
B          0.33815       -1.69993        1.24399
B          1.56196       -2.18004       -0.05094
B          3.16204       -1.66428        0.39305
B          4.49904       -0.70877       -0.14802
B          4.44948       -2.38441       -0.53392
B          3.05516       -3.13067       -0.27524
B          1.69975       -3.93787       -0.18439
B          0.35006       -3.27305        0.70056
B          0.30902       -4.52649       -0.30480
B         -2.47475       -3.24743       -0.11933
B         -1.13428       -4.03179       -0.09861
B         -2.50608       -1.51421        0.22657
B         -3.82182       -2.40097       -0.44683
B         -3.97854       -0.93812        0.29521
B         -1.14484       -2.45047        0.42934
B         -1.29323        2.48645        0.49703
B          3.20910        0.08095        0.65690
B         -0.99583       -0.71710        0.33626
B          4.31807        2.52134       -0.68170
B         -5.30173        1.56700       -0.52416
B         -5.34675       -0.10930       -0.24757
B         -5.21243       -1.74558       -0.74033
B         -6.41818       -0.86885       -1.21119
B         -6.38122        0.62059       -1.21789
B          1.80631       -0.78669        1.14384
B          0.24711        0.04061        1.28925
B          0.22902        1.72303        0.92231
B          5.46196        1.59238       -0.99987
B          5.78170        0.05824       -0.91400
B          5.65861       -1.48437       -0.87976
B          0.64969       -0.76992       -0.32576
