45
isomer_1393.log	Energy: -112642.5721016
B          2.69862        1.77868       -0.40770
B          2.70786        3.42032       -0.00918
B          1.31981        4.27654        0.21795
B         -0.14122        3.46912       -0.35092
B          1.24851        1.01805       -0.73975
B         -1.69708        0.95483       -0.81234
B         -1.52397        4.24502        0.33183
B          4.11265        0.82015       -0.31194
B         -1.54775        2.57558       -0.26393
B          4.07552        2.51222        0.14734
B         -0.09954        4.87006        0.47574
B         -2.97475        3.39919        0.35292
B         -3.06204        1.76726       -0.18969
B         -4.53282        0.94664        0.33199
B         -0.24717       -1.85992       -0.91542
B         -1.78838       -2.51496       -0.19960
B         -3.20476       -1.62236       -0.13191
B         -4.59755       -0.72152        0.33789
B         -4.52928       -2.30192        0.61645
B         -3.21976       -3.25667        0.41043
B         -1.80434       -4.18106        0.37469
B         -0.37384       -3.45464       -0.34761
B         -0.38592       -4.85377        0.48238
B          2.51835       -3.47116       -0.01755
B          1.06779       -4.30092        0.22152
B          2.63827       -1.80725       -0.42301
B          3.96075       -2.60722        0.16726
B          4.07528       -0.94019       -0.30891
B          1.13521       -2.70238       -0.56612
B          1.30703        2.66929       -0.57788
B         -3.23292        0.17638       -0.55268
B          1.12819       -1.08160       -0.69436
B         -4.33768        2.54310        0.56850
B          5.33943        1.65317        0.66900
B          5.30049        0.00458        0.43419
B          5.25629       -1.80513        0.67397
B          6.39042       -0.86547        1.28826
B          6.44890        0.65014        1.29443
B         -1.79032       -0.90983       -0.68939
B          1.50245       -0.18978       -1.03950
B         -0.16389        1.89021       -0.88947
B         -5.79054        1.79027        0.77905
B         -6.03453        0.12108        0.84503
B         -5.90893       -1.55719        0.86145
B         -1.24284       -0.54694       -1.44338
