45
isomer_1394.log	Energy: -113420.5878756
B         -2.67451        1.60021        0.72035
B         -2.70366        3.20224        0.06910
B         -1.35418        4.10616       -0.03848
B          0.12294        3.42785        0.57427
B         -1.21694        0.78839        1.00939
B          1.48108        0.81997        0.13727
B          1.44490        4.18202       -0.40728
B         -3.97228        0.69593        0.25625
B          1.52654        2.59402        0.16570
B         -3.96011        2.28630       -0.10999
B         -0.01438        4.69530       -0.42409
B          2.81818        3.37148       -0.50933
B          2.93094        1.73361       -0.07358
B          4.44721        1.01790       -0.07205
B          0.32914       -1.68372        0.76326
B          1.85033       -2.43970        0.57985
B          3.19741       -1.54577        0.52930
B          4.54674       -0.67558        0.04015
B          4.57230       -2.37850       -0.33238
B          3.21851       -3.18212        0.02858
B          1.88990       -4.07555       -0.12857
B          0.41311       -3.29009        0.24069
B          0.50108       -4.72790       -0.40261
B         -2.38054       -3.35408       -0.29918
B         -0.93704       -4.14083       -0.34225
B         -2.50843       -1.74961        0.27065
B         -3.80236       -2.59164       -0.38885
B         -3.88174       -0.97773       -0.02069
B         -1.10876       -2.55438        0.37111
B         -1.30923        2.52444        0.65878
B          3.14963        0.12201        0.59925
B         -1.19327       -0.79738        0.69885
B          4.20049        2.53703       -0.89692
B         -5.35379        1.45030       -0.45500
B         -5.31768       -0.20462       -0.10807
B         -5.18390       -1.80681       -0.76076
B         -6.30493       -0.88957       -1.24756
B         -6.44350        0.59047       -1.04779
B          1.68220       -0.68803        1.09829
B          0.27574        0.11296        1.61083
B          0.22268        1.76640        0.92127
B          5.33705        1.61939       -1.25551
B          5.67003        0.09561       -1.02934
B          5.61796       -1.44501       -0.88363
B          0.17513       -0.14136       -0.10927
