45
isomer_1395.log	Energy: -113475.3128359
B         -2.58897       -1.69745       -0.62792
B         -2.50347       -3.13270        0.39123
B         -1.13683       -3.87347        0.46588
B          0.12983       -3.31791       -0.57872
B         -1.29518       -0.72083       -0.70859
B          1.67760       -0.76148       -0.74046
B          1.64504       -4.13879        0.13484
B         -3.97421       -0.82801       -0.27943
B          1.65003       -2.48751       -0.33682
B         -3.87394       -2.31142        0.36832
B          0.28490       -4.53112        0.54280
B          3.02354       -3.31365        0.07685
B          3.11094       -1.70994       -0.36339
B          4.57727       -0.86181       -0.14179
B          0.35206        1.86815       -1.06810
B          1.77289        2.55787       -0.47593
B          3.15964        1.74520       -0.23808
B          4.49636        0.77889        0.22830
B          4.41436        2.44436        0.73959
B          3.07988        3.28796        0.33403
B          1.72037        4.15706        0.36971
B          0.33093        3.38685       -0.36845
B          0.32046        4.71571        0.52787
B         -2.47716        3.33775        0.04794
B         -1.09492        4.10168        0.27993
B         -2.51282        1.66256       -0.52884
B         -3.81033        2.51077        0.14933
B         -3.92246        0.93292       -0.25518
B         -1.15652        2.61017       -0.63438
B         -1.33406       -2.72292       -1.09502
B          3.26958        0.04134       -0.67276
B         -1.16184        0.90499       -1.01215
B          4.37698       -2.47734        0.47936
B         -5.25409       -1.51755        0.64202
B         -5.26642        0.10209        0.13969
B         -5.20172        1.74245        0.54413
B         -6.30179        0.89140        1.17936
B         -6.33930       -0.58886        1.21463
B          1.78723        0.89418       -0.95832
B         -1.11325       -2.05131        0.51527
B          0.18356       -1.60785       -0.52193
B          5.43362       -1.56002        1.03888
B          5.71430       -0.03870        1.09680
B          5.55026        1.51018        1.17247
B          0.25768        0.06609       -1.07296
