45
isomer_1398.log	Energy: -111906.7243916
B         -2.61814       -1.54772       -0.42869
B         -2.62637       -3.20980       -0.01589
B         -1.22619       -4.06579        0.24429
B          0.26189       -3.25889       -0.31789
B         -1.12839       -0.67091       -0.73981
B          1.76120       -0.76218       -0.81715
B          1.63453       -4.04885        0.38386
B         -4.05309       -0.65565       -0.35275
B          1.66729       -2.37080       -0.23798
B         -4.02281       -2.34852        0.12785
B          0.19613       -4.68833        0.52779
B          3.08120       -3.21323        0.38735
B          3.13395       -1.59861       -0.19709
B          4.59851       -0.79105        0.29567
B          0.34832        1.80594       -0.91176
B          1.73939        2.48915       -0.28856
B          3.18626        1.66632       -0.23360
B          4.62408        0.82372        0.27733
B          4.48624        2.38914        0.50851
B          3.19042        3.29079        0.31493
B          1.78306        4.16909        0.28777
B          0.37809        3.41507       -0.39564
B          0.37914        4.86129        0.41617
B         -2.47766        3.49096       -0.08907
B         -1.05582        4.28290        0.14436
B         -2.53414        1.85029       -0.45476
B         -3.90460        2.70958        0.06976
B         -4.01392        1.02625       -0.37022
B         -1.09015        2.64505       -0.62440
B         -1.19858       -2.42271       -0.57763
B          3.24345       -0.06403       -0.61125
B         -1.09855        0.92112       -0.75301
B          4.40969       -2.34986        0.56352
B         -5.32015       -1.50678        0.62346
B         -5.27988        0.12441        0.36945
B         -5.23902        1.94678        0.58195
B         -6.41747        1.02673        1.19693
B         -6.45730       -0.51525        1.21759
B          1.78544        0.88048       -0.83281
B         -2.32153       -1.63246        0.36716
B          0.29806       -1.62365       -0.88446
B          5.90998       -1.64500        0.77111
B          6.13033        0.05117        0.81479
B          5.96257        1.76380        0.79894
B         -0.10548       -2.63994       -1.15613
