45
isomer_1399.log	Energy: -113441.9352865
B          2.47082       -1.74378        0.39657
B          2.65059       -3.19507       -0.79803
B          1.37175       -4.10294       -0.81259
B          0.06891       -3.24351        0.39327
B          1.28306       -0.63585        1.02752
B         -1.68630       -0.78557        1.00701
B         -1.39162       -3.97836       -0.24291
B          3.68664       -0.65255        0.00038
B         -1.55865       -2.48607        0.56756
B          3.72945       -2.13812       -0.65550
B         -0.06320       -4.49973       -0.66449
B         -2.83857       -3.26813       -0.16620
B         -3.02908       -1.73819        0.31744
B         -4.41351       -0.89823       -0.21458
B         -0.39502        1.88212        0.97112
B         -1.84102        2.55397        0.45366
B         -3.20669        1.68314        0.15104
B         -4.64248        0.73783        0.04769
B         -4.49238        2.37119       -0.69555
B         -3.18370        3.25190       -0.36050
B         -1.82099        4.13352       -0.42875
B         -0.43221        3.42747        0.33747
B         -0.44017        4.75192       -0.56306
B          2.38421        3.44612       -0.10104
B          0.99233        4.21418       -0.27484
B          2.45841        1.81777        0.48390
B          3.80607        2.68396       -0.14404
B          3.73774        1.01138        0.00715
B          1.09575        2.68392        0.57811
B          1.81300       -3.42383        0.59154
B         -3.25334       -0.02078        0.64988
B          1.15008        0.95709        1.04284
B         -4.27396       -2.55636       -0.59266
B          5.15696       -1.32247       -0.69795
B          5.18032        0.22717       -0.08611
B          5.13294        1.92693       -0.50439
B          6.24026        1.00202       -1.07655
B          6.36042       -0.48039       -1.02622
B         -1.76949        0.86392        0.71445
B          1.16455       -2.28827        1.42151
B         -0.28138       -1.65443        1.30415
B         -5.45461       -1.74569       -1.07775
B         -5.69938       -0.20182       -1.10157
B         -5.51809        1.33827       -1.14578
B         -0.24838        0.09433        0.96681
