45
isomer_0014.log	Energy: -113675.8853259
B          2.50882        1.75988       -0.48797
B          2.42684        3.33490        0.04070
B          1.04671        4.15701        0.12382
B         -0.35152        3.38453       -0.51417
B          1.12937        0.84806       -1.03977
B         -1.78700        0.83034       -0.91199
B         -1.74903        4.14400        0.24550
B          3.95659        0.91106       -0.21597
B         -1.80235        2.53228       -0.48886
B          3.80906        2.53730        0.29345
B         -0.34263        4.74560        0.35247
B         -3.09264        3.28029        0.26527
B         -3.17388        1.68012       -0.26078
B         -4.53210        0.79709        0.23783
B         -0.31276       -1.83036       -1.08691
B         -1.72388       -2.55137       -0.43014
B         -3.12899       -1.73395       -0.22100
B         -4.54689       -0.89463        0.14454
B         -4.32598       -2.49993        0.77063
B         -3.00813       -3.34094        0.27884
B         -1.64149       -4.16982        0.25871
B         -0.26852       -3.40272       -0.53848
B         -0.21914       -4.74780        0.35339
B          2.51420       -3.30328        0.03765
B          1.15734       -4.14883        0.10952
B          2.56352       -1.73005       -0.53045
B          3.87009       -2.48452        0.27569
B          3.98472       -0.84504       -0.22548
B          1.18629       -2.57735       -0.78820
B          1.11879        2.58964       -0.76405
B         -3.29372       -0.01634       -0.60974
B          1.17049       -0.85103       -1.06821
B         -4.40738        2.44411        0.74859
B          5.06038        1.73918        0.86457
B          5.19640        0.04522        0.52159
B          5.10491       -1.65095        0.84453
B          6.10554       -0.70599        1.60446
B          6.08483        0.81466        1.61203
B         -1.71817       -0.84365       -0.78794
B          2.61026        0.01646       -0.74691
B         -0.36949        1.82490       -1.11700
B         -5.47365        1.51829        1.30104
B         -5.62008       -0.03365        1.30443
B         -5.37262       -1.56971        1.33825
B         -0.34311       -0.00302       -1.09348
