45
isomer_1400.log	Energy: -113477.9958097
B          2.51227        1.65479       -0.56366
B          2.47052        3.32180        0.06371
B          1.09696        4.10352        0.26990
B         -0.33606        3.38638       -0.35879
B          1.15066        0.91122       -1.02840
B         -1.78610        0.88887       -0.94907
B         -1.71946        4.14712        0.40018
B          3.93535        0.93592       -0.28513
B         -1.77340        2.55251       -0.46302
B          3.81151        2.51077        0.11821
B         -0.31737        4.69761        0.56376
B         -3.08487        3.28336        0.34732
B         -3.16052        1.74258       -0.23111
B         -4.50144        0.77524        0.21369
B         -0.16974       -1.60051       -0.45023
B         -1.64694       -2.47968       -0.36643
B         -3.10751       -1.71124       -0.38278
B         -4.57635       -0.86486       -0.15263
B         -4.37140       -2.47701        0.47508
B         -3.00458       -3.31521        0.09638
B         -1.62941       -4.13100        0.13152
B         -0.12038       -3.32062       -0.58108
B         -0.27576       -4.53267        0.55059
B          2.49822       -3.10614        0.40712
B          1.14389       -3.86680        0.48398
B          2.58770       -1.68990       -0.63841
B          3.85951       -2.29647        0.36511
B          3.97046       -0.82010       -0.28898
B          1.33488       -2.72525       -1.07567
B          1.15340        2.60700       -0.63262
B         -3.26083        0.04007       -0.67371
B          1.28652       -0.71966       -0.73103
B         -4.42903        2.43887        0.72686
B          5.19406        1.73956        0.54506
B          5.27882        0.09960        0.12232
B          5.24222       -1.51102        0.63443
B          6.31985       -0.58411        1.22853
B          6.29545        0.89166        1.17701
B         -1.66696       -0.75968       -0.72448
B          1.12972       -2.03897        0.53372
B         -0.35714        1.86475       -1.04850
B         -5.56614        1.50263        1.13979
B         -5.72588       -0.04168        1.06648
B         -5.43310       -1.56040        1.02797
B         -0.25159        0.05717       -1.06301
