45
isomer_1401.log	Energy: -112318.2034027
B         -2.75872       -1.51744       -0.43105
B         -2.88994       -3.22611       -0.01726
B         -1.59839       -4.31904        0.33427
B          0.20858       -3.32217       -0.32816
B         -1.30064       -0.64119       -0.72596
B          1.77564       -0.67494       -0.82518
B          1.57065       -4.12667        0.36531
B         -4.11850       -0.58844       -0.36488
B          1.62852       -2.42583       -0.22470
B         -4.14861       -2.27865        0.09492
B          0.02534       -4.87733        0.55473
B          3.00753       -3.27987        0.35945
B          3.11326       -1.62141       -0.21854
B          4.58102       -0.79886        0.26371
B          0.33883        1.82904       -0.88488
B          1.76761        2.50916       -0.24915
B          3.19377        1.68689       -0.21762
B          4.62397        0.83191        0.26866
B          4.51188        2.40701        0.54195
B          3.20038        3.29607        0.35998
B          1.79838        4.16098        0.34871
B          0.38980        3.42747       -0.34172
B          0.39880        4.81447        0.47659
B         -2.46099        3.50579       -0.03805
B         -1.02909        4.26249        0.20216
B         -2.56029        1.86901       -0.43608
B         -3.87339        2.73530        0.09474
B         -4.02559        1.09820       -0.36284
B         -1.11308        2.65276       -0.58603
B         -1.44616       -2.40260       -0.57181
B          3.23843       -0.01778       -0.62434
B         -1.17002        0.93581       -0.73859
B          4.40467       -2.39596        0.52632
B         -5.39551       -1.39150        0.58211
B         -5.29911        0.22441        0.34536
B         -5.21296        2.00175        0.58437
B         -6.37568        1.14657        1.16911
B         -6.48103       -0.37684        1.18179
B          1.80969        0.94229       -0.81559
B         -0.81412       -3.52326        0.05820
B          0.15696       -1.71730       -0.84677
B          5.84246       -1.64037        0.70604
B          6.06708        0.03339        0.77042
B          5.92938        1.67843        0.78578
B          0.48919       -0.88563       -1.12548
