45
isomer_1405.log	Energy: -113441.9522418
B         -2.45532        1.81998        0.47853
B         -2.37881        3.44797       -0.10613
B         -0.98570        4.21460       -0.27792
B          0.43688        3.42636        0.33675
B         -1.14830        0.95826        1.04058
B          1.77241        0.86229        0.72005
B          1.82830        4.13308       -0.42260
B         -3.73547        1.01426        0.00234
B          1.84523        2.55280        0.46064
B         -3.80172        2.68705       -0.14995
B          0.44807        4.75147       -0.56261
B          3.18937        3.25045       -0.35061
B          3.21192        1.68247        0.16464
B          4.64276        0.73262        0.04247
B          0.27984       -1.65437        1.30528
B          1.55650       -2.48761        0.56887
B          3.02758       -1.74122        0.31843
B          4.41099       -0.90255       -0.21826
B          4.26841       -2.55992       -0.59798
B          2.83398       -3.27038       -0.16740
B          1.38622       -3.97947       -0.24203
B         -0.07222       -3.24280        0.39504
B          0.05683       -4.50019       -0.66164
B         -2.65535       -3.19380       -0.79567
B         -1.37779       -4.10320       -0.81067
B         -2.47269       -1.74162        0.39690
B         -3.73299       -2.13579       -0.65327
B         -3.68733       -0.64926       -0.00043
B         -1.81607       -3.42230        0.59299
B         -1.09203        2.68467        0.57514
B          3.25502       -0.02478        0.65184
B         -1.28352       -0.63411        1.02690
B          4.49411        2.36745       -0.69266
B         -5.12987        1.93131       -0.50858
B         -5.17997        0.23277       -0.08581
B         -5.15964       -1.31830       -0.69456
B         -6.36257       -0.47528       -1.02241
B         -6.23982        1.00677       -1.07675
B          1.68610       -0.78729        1.00916
B         -1.16708       -2.28605        1.42225
B          0.39730        1.88172        0.97205
B          5.51567        1.33425       -1.15198
B          5.69384       -0.20637       -1.11071
B          5.44729       -1.75016       -1.08756
B          0.24961        0.09422        0.96732
