45
isomer_1406.log	Energy: -113506.9960563
B         -2.06623       -0.04938       -0.17583
B         -2.79312       -3.00942       -0.19894
B         -1.48301       -3.83011        0.08175
B         -0.05494       -3.31094       -0.72797
B         -1.27130       -0.78443       -1.63420
B          1.29334       -0.83169       -0.39780
B          1.33541       -4.12617        0.10350
B         -3.72908       -0.64313       -0.06893
B          1.46394       -2.59896       -0.66458
B         -4.12887       -2.23986       -0.19149
B         -0.15248       -4.47342        0.37020
B          2.75864       -3.51049        0.01808
B          2.74830       -1.85721       -0.01952
B          4.21306       -1.11243        0.36095
B          0.55240        1.82036       -1.30789
B          1.98056        2.46965       -0.72860
B          3.19973        1.51647       -0.18978
B          4.17696        0.50328        0.75499
B          4.55665        2.18009        0.63947
B          3.37299        3.12416        0.03258
B          2.12432        4.11293       -0.12858
B          0.66436        3.48129       -0.93456
B          0.77710        4.77215        0.01462
B         -2.03227        3.40219        0.12670
B         -0.66653        4.21813       -0.07954
B         -2.07753        1.73339       -0.16406
B         -3.38326        2.63164        0.61341
B         -3.48681        1.00198        0.26238
B         -0.84479        2.65929       -0.74034
B         -1.28035       -2.09538       -0.23228
B          2.91964       -0.16089       -0.12526
B         -0.80858        0.81874       -1.01068
B          4.09995       -2.80154        0.62774
B         -5.27167       -1.38130        0.47987
B         -4.90741        0.26470        0.69225
B         -4.68707        1.92758        1.15596
B         -5.93920        1.06811        1.59455
B         -6.16847       -0.42010        1.36803
B          1.64067        0.75428       -0.80841
B         -2.69994       -1.53300       -1.06586
B          0.09614       -1.74643       -1.36165
B          5.23568       -1.98942        1.20884
B          5.55426       -0.44638        1.29132
B          5.55694        1.12297        1.19287
B         -0.38814       -0.63132       -0.03329
