45
isomer_1407.log	Energy: -113428.1906793
B         -2.62073        1.60658        0.41973
B         -2.60422        3.29907        0.15770
B         -1.20204        4.09481        0.09213
B          0.26180        3.35586        0.75468
B         -1.14869        0.80175        0.55774
B          1.61547        0.82726        0.43942
B          1.64806        4.12101       -0.09869
B         -4.05047        0.84308        0.29923
B          1.72512        2.54022        0.43120
B         -3.95647        2.43787       -0.20688
B          0.20786        4.63298       -0.19664
B          3.06013        3.32874       -0.17255
B          3.10843        1.68581        0.19541
B          4.50899        0.84726       -0.20166
B          0.27752       -1.65331        1.13151
B          1.72514       -2.54061        0.43078
B          3.10811       -1.68651        0.19236
B          4.50972       -0.84765       -0.20034
B          4.38990       -2.50370       -0.69901
B          3.06025       -3.32973       -0.17258
B          1.64764       -4.12103       -0.09982
B          0.26146       -3.35520        0.75407
B          0.20726       -4.63298       -0.19636
B         -2.60469       -3.29903        0.15966
B         -1.20247       -4.09450        0.09308
B         -2.62115       -1.60673        0.42099
B         -3.95687       -2.43761       -0.20565
B         -4.05067       -0.84253        0.29984
B         -1.25951       -2.50927        0.63485
B         -1.25937        2.50981        0.63367
B          3.22570       -0.00020        0.50267
B         -1.14982       -0.80132        0.55959
B          4.39016        2.50331       -0.69820
B         -5.17099        1.68754       -0.81638
B         -5.22848        0.00006       -0.54292
B         -5.17115       -1.68735       -0.81574
B         -6.25753       -0.74634       -1.51165
B         -6.25723        0.74629       -1.51229
B          1.61478       -0.82807        0.43300
B          0.21514        0.00035        1.58496
B          0.27702        1.65404        1.13138
B          5.43849        1.56538       -1.27120
B          5.63242        0.00003       -1.25666
B          5.43692       -1.56513       -1.27266
B          0.21906       -0.00033       -0.16176
