45
isomer_1409.log	Energy: -112868.7315155
B          2.57558       -1.74676        0.37731
B          2.52129       -3.40574        0.01054
B          1.13621       -4.24083       -0.20612
B         -0.29285       -3.41260        0.33029
B          1.18596       -0.96359        0.65544
B         -1.72442       -0.84164        0.78159
B         -1.69572       -4.16759       -0.32086
B          3.94145       -0.84380        0.28568
B         -1.69500       -2.48999        0.23560
B          3.88449       -2.50840       -0.15325
B         -0.30161       -4.78681       -0.45408
B         -3.09657       -3.28596       -0.34097
B         -3.11603       -1.66634        0.19558
B         -4.55608       -0.80025       -0.27430
B         -0.28369        1.80001        0.84849
B         -1.66883        2.48549        0.25178
B         -3.09958        1.67000        0.20825
B         -4.52817        0.82829       -0.26444
B         -4.41750        2.41502       -0.52968
B         -3.06169        3.28939       -0.32842
B         -1.67589        4.15697       -0.31367
B         -0.28176        3.40751        0.35061
B         -0.29844        4.78308       -0.43816
B          2.51739        3.42658        0.01487
B          1.14183        4.23755       -0.19302
B          2.56466        1.77065        0.37134
B          3.89696        2.53059       -0.16150
B          3.94689        0.90103        0.27797
B          1.18613        2.64453        0.55311
B          1.18645       -2.64431        0.53563
B         -3.19195       -0.06919        0.58426
B          1.15775        0.95503        0.65520
B         -4.46467       -2.40639       -0.54154
B          5.14026       -1.70400       -0.68766
B          5.13702       -0.04493       -0.45539
B          5.12860        1.71939       -0.68127
B          6.21866        0.76825       -1.28008
B          6.25681       -0.72289       -1.29835
B         -1.71731        0.86130        0.79037
B          1.97153       -0.12275        2.08662
B         -0.32533       -1.80500        0.81020
B         -5.79937       -1.55081       -0.69799
B         -5.95398        0.05669       -0.74484
B         -5.75410        1.64427       -0.74175
B          0.30465       -0.12103       -0.10337
