45
isomer_0141.log	Energy: -113478.6838996
B          2.52868        1.65148       -0.57030
B          2.49668        3.31192        0.05126
B          1.12392        4.09504        0.27087
B         -0.31230        3.38781       -0.35781
B          1.16106        0.90163       -1.02327
B         -1.77808        0.90126       -0.94022
B         -1.69249        4.14727        0.41742
B          3.94217        0.91872       -0.28760
B         -1.75419        2.55738       -0.43372
B          3.83926        2.50066        0.10294
B         -0.28506        4.69315        0.57190
B         -3.06507        3.29686        0.36180
B         -3.14990        1.75755       -0.22032
B         -4.49459        0.79762        0.21928
B         -0.18445       -1.58725       -0.38630
B         -1.66358       -2.46954       -0.36427
B         -3.11948       -1.69633       -0.39968
B         -4.58327       -0.83829       -0.16731
B         -4.39658       -2.46097        0.43586
B         -3.03212       -3.30539        0.05449
B         -1.65863       -4.12761        0.12094
B         -0.14343       -3.31209       -0.57546
B         -0.30832       -4.54496        0.53679
B          2.47839       -3.12653        0.42730
B          1.11484       -3.88483        0.48453
B          2.56951       -1.70177       -0.61082
B          3.83798       -2.31038        0.39257
B          3.94425       -0.82263       -0.24741
B          1.31607       -2.73348       -1.05990
B          1.17145        2.60384       -0.64932
B         -3.25750        0.05987       -0.67032
B          1.27568       -0.73531       -0.74522
B         -4.42062        2.45924        0.73295
B          5.22899        1.72181        0.49947
B          5.29347        0.07161        0.09241
B          5.22312       -1.52432        0.65512
B          6.32560       -0.60484        1.21128
B          6.32720        0.87025        1.12856
B         -1.67203       -0.74856       -0.71013
B          1.11477       -2.05696        0.55459
B         -0.34496        1.86469       -1.04511
B         -5.56166        1.52578        1.13993
B         -5.73226       -0.01981        1.05400
B         -5.45455       -1.53994        0.99570
B         -0.24800        0.05637       -1.04748
