45
isomer_1410.log	Energy: -113432.1887222
B          2.37203        1.88164       -0.37685
B          2.28791        3.51293        0.03236
B          0.85733        4.31685        0.07083
B         -0.53599        3.51384       -0.68714
B          0.85695        1.05951       -0.48479
B         -1.75304        0.78860       -0.80337
B         -1.95857        4.11931        0.08666
B          3.78397        1.01039       -0.18511
B         -1.95848        2.53437       -0.61826
B          3.63288        2.64395        0.39787
B         -0.58910        4.79090        0.27076
B         -3.28759        3.17766        0.11578
B         -3.29864        1.58882       -0.41804
B         -4.64093        0.67228        0.06671
B         -0.24743       -1.82814       -1.08792
B         -1.58510       -2.56956       -0.32141
B         -2.93422       -1.78473       -0.01469
B         -4.36442       -0.97744        0.38401
B         -4.26969       -2.62566        0.79028
B         -2.85793       -3.38204        0.37649
B         -1.42249       -4.19459        0.32684
B         -0.11780       -3.43563       -0.47657
B         -0.00846       -4.77919        0.35571
B          2.71735       -3.30498       -0.13533
B          1.38234       -4.14304       -0.00053
B          2.74919       -1.70443       -0.82098
B          3.99185       -2.39842        0.13986
B          3.91851       -0.72867       -0.11609
B          1.36852       -2.69704       -0.96247
B          0.95002        2.74047       -0.54639
B         -3.12056       -0.10782       -0.43932
B          0.31405       -0.36002       -0.78128
B         -4.55384        2.29093        0.59983
B          4.92938        1.89488        0.89226
B          5.08289        0.23107        0.57963
B          5.08196       -1.47967        0.88507
B          6.03643       -0.48379        1.65420
B          6.03080        1.03065        1.60597
B         -1.50328       -0.84501       -0.66932
B          2.38735        0.05754       -0.73705
B         -0.46141        1.81450       -0.98642
B         -5.54087        1.30235        1.23333
B         -5.70084       -0.24038        1.20040
B         -5.48561       -1.78836        1.17915
B          1.46457       -1.11484       -1.57469
