45
isomer_1411.log	Energy: -112020.4330569
B          2.64463       -1.65339        0.38285
B          2.64000       -3.28653       -0.01767
B          1.23520       -4.11680       -0.27064
B         -0.22343       -3.29487        0.29013
B          1.18318       -0.76879        0.69996
B         -1.69145       -0.80613        0.78538
B         -1.61199       -4.07494       -0.40825
B          4.10121       -0.77501        0.31999
B         -1.60858       -2.40313        0.20475
B          4.04551       -2.46129       -0.15789
B         -0.18562       -4.73341       -0.55617
B         -3.04588       -3.23120       -0.41185
B         -3.07607       -1.61704        0.17482
B         -4.53777       -0.80154       -0.31146
B         -0.26319        1.75243        0.88358
B         -1.64748        2.45205        0.26632
B         -3.10220        1.64355        0.21617
B         -4.55075        0.81732       -0.29093
B         -4.39569        2.37925       -0.51639
B         -3.09800        3.27235       -0.32938
B         -1.67781        4.13859       -0.30408
B         -0.27679        3.36341        0.37456
B         -0.26220        4.82336       -0.43498
B          2.58635        3.40876        0.06724
B          1.16837        4.22256       -0.16488
B          2.61722        1.76627        0.42622
B          4.00486        2.60997       -0.09358
B          4.08768        0.91322        0.34139
B          1.18056        2.57694        0.59935
B          1.22117       -2.49110        0.53508
B         -3.17161       -0.09243        0.59083
B          1.17020        0.85062        0.72049
B         -4.35775       -2.35456       -0.57642
B          5.36321       -1.63963       -0.65173
B          5.34730       -0.01163       -0.39714
B          5.33547        1.82232       -0.60783
B          6.50832        0.88459       -1.22214
B          6.52076       -0.66796       -1.24182
B         -1.70464        0.83971        0.80626
B          0.24780       -2.12583        1.40140
B         -0.23554       -1.69731        0.83983
B         -5.87203       -1.65297       -0.78152
B         -6.08082        0.05934       -0.82480
B         -5.89691        1.79078       -0.80846
B         -0.63480        0.37008        0.45341
