45
isomer_1412.log	Energy: -112833.9414562
B          2.65359       -1.56198        0.37954
B          2.65638       -3.21421       -0.05048
B          1.25581       -4.05586       -0.30440
B         -0.19859       -3.27919        0.27324
B          1.19672       -0.66115        0.73111
B         -1.70700       -0.76717        0.80177
B         -1.56786       -4.05460       -0.42644
B          4.02119       -0.69670        0.30169
B         -1.61864       -2.40303        0.20238
B          3.98578       -2.35880       -0.17714
B         -0.14203       -4.64979       -0.57063
B         -3.00870       -3.23655       -0.41555
B         -3.08793       -1.62692        0.17871
B         -4.55508       -0.81012       -0.28180
B         -0.30486        1.75099        0.89816
B         -1.70840        2.45987        0.28843
B         -3.14908        1.64061        0.24208
B         -4.58039        0.80645       -0.25163
B         -4.46626        2.38571       -0.49427
B         -3.13573        3.26137       -0.29831
B         -1.72027        4.12659       -0.27718
B         -0.33170        3.36901        0.38527
B         -0.32009        4.77247       -0.40295
B          2.50449        3.41357        0.05884
B          1.08733        4.20767       -0.15314
B          2.55154        1.77325        0.42637
B          3.89110        2.61682       -0.11052
B          3.99109        0.97515        0.32636
B          1.13448        2.57981        0.60281
B          1.24150       -2.46206        0.50289
B         -3.20083       -0.07599        0.60802
B          1.13617        0.87144        0.73536
B         -4.38342       -2.39293       -0.58502
B          5.26104       -1.53391       -0.68840
B          5.21897        0.09494       -0.42598
B          5.18005        1.86493       -0.62534
B          6.31903        0.96530       -1.24485
B          6.37288       -0.54855       -1.28282
B         -1.73688        0.85407        0.82768
B          1.31345       -2.13662        1.92167
B         -0.24281       -1.65968        0.88635
B         -5.82803       -1.61441       -0.75340
B         -6.02421        0.02670       -0.76972
B         -5.87872        1.65746       -0.74964
B         -0.07509       -0.67397       -0.23912
