45
isomer_1417.log	Energy: -113675.8858360
B          2.56291        1.73081       -0.53032
B          2.51313        3.30391        0.03722
B          1.15611        4.14908        0.10929
B         -0.26926        3.40239       -0.53784
B          1.17016        0.85072       -1.06848
B         -1.71818        0.84305       -0.78842
B         -1.64266        4.16926        0.25880
B          3.98423        0.84608       -0.22431
B         -1.72493        2.55111       -0.43070
B          3.86927        2.48556        0.27616
B         -0.22063        4.74775        0.35354
B         -3.00904        3.34001        0.27861
B         -3.12922        1.73271       -0.22122
B         -4.54749        0.89383        0.14438
B         -0.36900       -1.82548       -1.11738
B         -1.80173       -2.53285       -0.48778
B         -3.17276       -1.68023       -0.25939
B         -4.53226       -0.79819        0.23738
B         -4.40642       -2.44454        0.75013
B         -3.09131       -3.28043        0.26713
B         -1.74722       -4.14410        0.24709
B         -0.35052       -3.38485       -0.51454
B         -0.34071       -4.74561        0.35246
B          2.42810       -3.33430        0.03962
B          1.04834       -4.15701        0.12292
B          2.50936       -1.75924       -0.48873
B          3.81011       -2.53669        0.29255
B          3.95671       -0.90997       -0.21605
B          1.11966       -2.58990       -0.76537
B          1.18549        2.57746       -0.78890
B         -3.29378        0.01561       -0.60958
B          1.12968       -0.84874       -1.04272
B         -4.32700        2.49911        0.76979
B          5.10419        1.65226        0.84553
B          5.19585       -0.04401        0.52253
B          5.06110       -1.73827        0.86423
B          6.08461       -0.81356        1.61266
B          6.10446        0.70728        1.60578
B         -1.78606       -0.83078       -0.91192
B          2.61012       -0.01572       -0.74574
B         -0.31324        1.83034       -1.08683
B         -5.37380        1.56915        1.33741
B         -5.62023        0.03299        1.30423
B         -5.47341       -1.51887        1.30140
B         -0.34272        0.00286       -1.09459
