45
isomer_1418.log	Energy: -112785.4921447
B          2.61998       -1.68026        0.37377
B          2.61397       -3.31529       -0.01895
B          1.20827       -4.14704       -0.26182
B         -0.24808       -3.32276        0.30139
B          1.15972       -0.79447        0.69304
B         -1.71449       -0.83200        0.79120
B         -1.63950       -4.10644       -0.38719
B          4.07608       -0.80188        0.30036
B         -1.63379       -2.43173        0.21782
B          4.01867       -2.49043       -0.16924
B         -0.21364       -4.76530       -0.53821
B         -3.07359       -3.26302       -0.38855
B         -3.10158       -1.64609        0.19056
B         -4.56558       -0.83322       -0.29320
B         -0.28640        1.72730        0.87098
B         -1.67354        2.42368        0.25645
B         -3.12828        1.61465        0.21651
B         -4.57884        0.78572       -0.28032
B         -4.42512        2.34659       -0.51389
B         -3.12683        3.24084       -0.33680
B         -1.70675        4.10749       -0.32183
B         -0.30260        3.33584        0.35437
B         -0.29188        4.79192       -0.46217
B          2.55916        3.38032        0.03432
B          1.14000        4.19271       -0.19547
B          2.59198        1.73956        0.40098
B          3.97715        2.58107       -0.12889
B          4.06225        0.88642        0.31379
B          1.15590        2.55075        0.57653
B          1.19739       -2.51753        0.53620
B         -3.19565       -0.11954        0.59973
B          1.14647        0.82502        0.70593
B         -4.38636       -2.38744       -0.55155
B          5.33402       -1.67086       -0.67273
B          5.31884       -0.04167       -0.42583
B          5.30567        1.79125       -0.64519
B          6.47605        0.85086       -1.26014
B          6.48876       -0.70177       -1.27249
B         -1.72797        0.81392        0.80430
B          0.99957       -0.74039        2.21109
B         -0.25816       -1.72260        0.84353
B         -5.90168       -1.68715       -0.75338
B         -6.11105        0.02489       -0.80389
B         -5.92746        1.75642       -0.79659
B         -0.23109        0.25167       -0.11453
