45
isomer_1419.log	Energy: -113449.8926645
B          2.65376        1.62839       -0.65642
B          2.59730        3.22880       -0.10841
B          1.18384        4.07057       -0.01437
B         -0.20796        3.29606       -0.47306
B          1.31849        0.74518       -1.08360
B         -1.86461        0.88932       -1.32069
B         -1.62255        4.11644        0.20104
B          3.98520        0.80962       -0.13584
B         -1.73068        2.51414       -0.52777
B          3.93991        2.40863        0.11975
B         -0.18893        4.72434        0.20222
B         -2.91269        3.27307        0.41104
B         -2.77535        1.50635        0.33001
B         -4.33168        0.80538        0.38230
B         -0.25289       -1.77325       -1.00553
B         -1.71376       -2.52728       -0.61246
B         -3.12127       -1.67868       -0.36386
B         -4.54314       -0.82141       -0.11272
B         -4.32535       -2.46331        0.52990
B         -3.04110       -3.31564        0.05825
B         -1.69700       -4.16090        0.12925
B         -0.25997       -3.35882       -0.47950
B         -0.28502       -4.74556        0.32677
B          2.50077       -3.29230        0.18690
B          1.11364       -4.14037        0.17222
B          2.59433       -1.68986       -0.45427
B          3.82596       -2.47607        0.40984
B          3.94981       -0.89918       -0.02977
B          1.22406       -2.56411       -0.61898
B          1.26540        2.46764       -0.74153
B         -3.20671        0.06217       -0.69974
B          1.29545       -0.86477       -1.02976
B         -4.21665        2.45962        0.89002
B          5.28449        1.62006        0.62384
B          5.31888       -0.06200        0.26587
B          5.20928       -1.65762        0.84072
B          6.29991       -0.75521        1.41300
B          6.33073        0.73853        1.31329
B         -1.64314       -0.74071       -0.70361
B         -1.26885        0.81827        0.31181
B         -0.30318        1.67476       -1.01808
B         -5.36246        1.57265        1.30657
B         -5.58528        0.01620        1.20865
B         -5.29716       -1.46646        1.16833
B         -0.13383        0.00730       -0.61162
