45
isomer_1420.log	Energy: -111951.1038931
B         -2.68297        1.71060        0.42468
B         -2.68878        3.35818        0.07447
B         -1.29448        4.20488       -0.15978
B          0.17059        3.38156        0.36256
B         -1.22597        0.82558        0.70259
B          1.64939        0.90220        0.76894
B          1.54652        4.19352       -0.32166
B         -4.12581        0.83251        0.34072
B          1.55744        2.50948        0.23846
B         -4.07812        2.52796       -0.08029
B          0.11313        4.83516       -0.43510
B          2.98136        3.35807       -0.36336
B          3.02674        1.72390        0.17291
B          4.48572        0.92285       -0.34580
B          0.22324       -1.70156        0.78795
B          1.61975       -2.38575        0.13627
B          3.06924       -1.56061        0.10879
B          4.50371       -0.70673       -0.37629
B          4.36403       -2.26649       -0.66112
B          3.06017       -3.17458       -0.49574
B          1.64603       -4.04563       -0.49113
B          0.24695       -3.29665        0.22306
B          0.22676       -4.71591       -0.62997
B         -2.61504       -3.33095       -0.06362
B         -1.20101       -4.13258       -0.33153
B         -2.64773       -1.70033        0.35382
B         -4.02654       -2.52655       -0.18499
B         -4.10871       -0.85664        0.30516
B         -1.21562       -2.51700        0.48626
B         -1.27057        2.55495        0.59274
B          3.13688        0.17121        0.54085
B         -1.21293       -0.79291        0.66802
B          4.30575        2.49106       -0.56645
B         -5.39191        1.71858       -0.59129
B         -5.36835        0.08500       -0.39017
B         -5.35480       -1.72573       -0.66125
B         -6.52203       -0.78015       -1.23510
B         -6.54366        0.76623       -1.20589
B          1.67239       -0.80032        0.73620
B          0.95176       -1.90723        2.69888
B          0.19350        1.76828        0.86212
B          5.79946        1.77889       -0.79532
B          6.01133        0.08393       -0.89103
B          5.83587       -1.63228       -0.93061
B          1.17732       -0.14801        0.62205
