45
isomer_1422.log	Energy: -113559.6376386
B          2.41115        1.92405       -0.51445
B          2.24087        3.43954        0.15223
B          0.77533        4.18024        0.24855
B         -0.57625        3.37168       -0.39811
B          0.97977        0.92215       -0.97013
B         -1.79450        0.72391       -0.72149
B         -2.03699        4.03498        0.25566
B          3.80567        1.07077       -0.10435
B         -1.97714        2.41067       -0.45505
B          3.66093        2.76829        0.34773
B         -0.67066        4.69209        0.48965
B         -3.36198        3.12680        0.14652
B         -3.36951        1.53678       -0.35093
B         -4.73921        0.59429       -0.20863
B         -0.22255       -1.67968       -1.04573
B         -1.56996       -2.53385       -0.40234
B         -3.02468       -1.83029       -0.18139
B         -4.51787       -1.03545        0.13041
B         -4.28028       -2.67895        0.63876
B         -2.85518       -3.37132        0.31157
B         -1.36877       -4.08864        0.36150
B         -0.09321       -3.31390       -0.47379
B          0.06594       -4.55145        0.52624
B          2.71741       -3.03950        0.01351
B          1.43169       -3.89278        0.16721
B          2.74888       -1.47666       -0.77561
B          4.05365       -2.17919        0.29670
B          4.17593       -0.63050       -0.91627
B          1.33949       -2.39776       -0.72252
B          0.89533        2.60925       -0.49502
B         -3.27060       -0.17030       -0.66119
B          1.08130       -0.71977       -1.03759
B         -4.68953        2.21160        0.47568
B          4.89968        1.88890        0.85630
B          5.31465        0.27416        0.11431
B          5.39023       -1.35996        0.16259
B          4.93439       -0.92055        1.63206
B          4.65327        0.61605        1.71552
B         -1.67542       -0.86251       -0.84014
B          3.59179       -0.52607        0.74406
B         -0.47779        1.69061       -0.84990
B         -5.66852        1.18027        0.98646
B         -5.84004       -0.35677        0.96284
B         -5.54035       -1.86996        1.01525
B          2.45368        0.21871       -0.62668
