45
isomer_1423.log	Energy: -113460.5688483
B          2.21695        1.80753       -0.48447
B          2.07830        3.45665       -0.09936
B          0.72730        4.26229       -0.21360
B         -0.62743        3.48494       -0.93625
B          0.92106        0.87127       -1.32923
B         -1.59805        0.72966       -0.78316
B         -2.03075        4.10030       -0.04972
B          3.54615        1.06843        0.09883
B         -1.86861        2.44245       -0.66898
B          3.34307        2.64253        0.51027
B         -0.70475        4.78942        0.02752
B         -3.25547        3.10077        0.10486
B         -3.16580        1.50592       -0.23136
B         -4.37012        0.50064        0.39326
B         -0.17458       -1.70317       -1.32901
B         -1.38434       -2.61773       -0.43782
B         -2.76621       -1.89189       -0.00124
B         -4.21334       -1.13178        0.45596
B         -3.93697       -2.76565        0.95619
B         -2.59808       -3.48342        0.33161
B         -1.17353       -4.23311        0.12591
B          0.04147       -3.37291       -0.78512
B          0.26445       -4.73298        0.03883
B          2.77370       -3.08351       -0.43420
B          1.55671       -3.99382       -0.33327
B          2.67286       -1.42863       -0.92888
B          3.97099       -2.21434       -0.00451
B          3.76193       -0.56686       -0.04135
B          1.39312       -2.35098       -1.08559
B          0.90781        2.70569       -0.94869
B         -3.01853       -0.19966       -0.33583
B          1.26321       -0.71401       -1.78017
B         -4.41612        2.18288        0.75638
B          4.51003        1.92781        1.33307
B          4.75288        0.28052        0.96457
B          4.90574       -1.40864        0.97647
B          5.62302       -0.47666        2.04583
B          5.49823        1.03182        2.15355
B         -1.43407       -0.87927       -0.69236
B          2.00469        0.04414       -0.24205
B         -0.50029        1.80449       -1.30872
B         -5.36462        1.18859        1.43018
B         -5.38729       -0.37601        1.53053
B         -5.03459       -1.92465        1.57274
B          0.28986       -0.37904       -0.32160
