45
isomer_1425.log	Energy: -113392.5575660
B         -2.08744        1.78286        0.02701
B         -1.83465        3.52349       -0.42886
B         -0.34844        4.09691       -0.35751
B          0.90926        3.10778        0.22631
B         -0.97866        0.82296        0.58719
B          1.92174        0.46173        0.98389
B          2.47560        3.83459        0.17601
B         -3.58556        1.31507       -0.17408
B          2.21872        2.14573        0.78815
B         -3.25840        2.88656       -0.59621
B          1.16149        4.59176       -0.18327
B          3.70683        2.82956        0.43238
B          3.49624        1.14777        0.67818
B          4.74617        0.02533        0.47402
B          0.17296       -1.93677        1.35218
B          0.79791       -1.44282       -0.54222
B          2.49290       -1.79666       -0.18091
B          4.16449       -1.29029       -0.44333
B          3.43826       -2.36212       -1.58881
B          1.85966       -2.59021       -1.42655
B          0.51147       -3.24478       -1.05112
B         -0.67394       -2.38268       -0.18301
B         -0.57567       -4.14956       -0.40887
B         -3.19960       -2.95204        0.63937
B         -1.95715       -3.67270        0.14121
B         -2.68955       -1.36981        0.59526
B         -4.30462       -1.89683        0.37575
B         -3.93026       -0.36239        0.17604
B         -1.58672       -2.39508        1.40391
B         -0.68744        2.51464        0.24077
B          3.26803       -0.62983        0.87402
B         -1.12186       -0.84589        0.83393
B          4.93167        1.80407        0.09172
B         -4.78174        2.27886       -0.87102
B         -5.06693        0.70192       -0.38613
B         -5.50495       -0.89302       -0.19095
B         -6.51098        0.10923       -0.82519
B         -6.19211        1.55769       -1.12485
B          1.64292       -1.20963        1.19479
B         -0.32782       -3.52125        1.06647
B          0.64036        1.48875        0.69720
B          5.73519        0.73008       -0.58693
B          5.58002       -0.69159       -1.12751
B          4.90859       -1.97598       -1.65550
B          0.42400       -0.14541        0.27706
