45
isomer_1427.log	Energy: -113400.3688805
B         -2.59423       -1.40012       -0.43104
B         -2.49874       -3.10479        0.19356
B         -1.38468       -4.06334        0.78891
B          0.17403       -3.26323       -0.62730
B         -1.25506       -0.65412       -1.08926
B          1.72646       -0.77805       -0.76626
B          1.50412       -4.04681        0.17397
B         -3.96791       -0.66983       -0.19180
B          1.67260       -2.49833       -0.51937
B         -3.84590       -2.18984        0.38773
B          0.03898       -4.50828        0.45875
B          2.94127       -3.29332        0.23001
B          3.11741       -1.70013       -0.25762
B          4.59449       -0.88411        0.00998
B          0.38778        1.84085       -1.14483
B          1.82747        2.57856       -0.38308
B          3.17972        1.70761       -0.17138
B          4.52014        0.77565        0.32008
B          4.45697        2.41832        0.81878
B          3.11774        3.28044        0.39104
B          1.74097        4.10454        0.36626
B          0.36369        3.42972       -0.49918
B          0.31244        4.69678        0.46096
B         -2.46489        3.42332       -0.11799
B         -1.08104        4.16886        0.08575
B         -2.53786        1.78991       -0.63124
B         -3.83600        2.60509        0.12796
B         -3.92813        0.99223       -0.20141
B         -1.16471        2.65359       -0.79109
B         -1.28598       -2.30967       -0.90635
B          3.29037        0.02142       -0.59931
B         -1.17779        0.97738       -1.16690
B          4.28658       -2.50709        0.66227
B         -5.18445       -1.47489        0.84374
B         -5.27693        0.19837        0.41060
B         -5.08713        1.85586        0.74889
B         -6.14255        0.94076        1.52682
B         -6.24597       -0.54874        1.49316
B          1.84496        0.94439       -0.96247
B         -1.34065       -3.92593       -0.78011
B          0.28960       -1.53950       -0.92284
B          5.38439       -1.59285        1.20600
B          5.68173       -0.08872        1.22614
B          5.54622        1.48740        1.29463
B          0.30046        0.15066       -1.06516
