45
isomer_1428.log	Energy: -110295.7209646
B         -2.55624       -1.63221       -0.49830
B         -2.56634       -3.27036       -0.11891
B         -1.16953       -4.11369        0.13509
B          0.29947       -3.29491       -0.40273
B         -1.08605       -0.75392       -0.79166
B          1.78887       -0.81041       -0.85342
B          1.67661       -4.09368        0.29713
B         -4.00718       -0.74447       -0.43632
B          1.68999       -2.41413       -0.29420
B         -3.96723       -2.43711        0.02016
B          0.24450       -4.74392        0.42455
B          3.11624       -3.26018        0.32369
B          3.16260       -1.63884       -0.24179
B          4.62574       -0.83999        0.26725
B          0.37927        1.75920       -0.93051
B          1.76310        2.44104       -0.29266
B          3.21170        1.62173       -0.24075
B          4.65012        0.77887        0.26777
B          4.50399        2.33882        0.51210
B          3.21416        3.24337        0.32576
B          1.80028        4.11985        0.29975
B          0.39973        3.36336       -0.40061
B          0.38840        4.81284        0.42759
B         -2.46553        3.42493       -0.11678
B         -1.04396        4.22565        0.13775
B         -2.50475        1.78745       -0.49721
B         -3.89087        2.63414        0.02178
B         -3.98176        0.94376       -0.43578
B         -1.06108        2.59014       -0.64778
B         -1.13739       -2.47790       -0.64939
B          3.27224       -0.10972       -0.63723
B         -1.06167        0.86549       -0.79114
B          4.43271       -2.39498        0.51059
B         -5.28335       -1.61261        0.51350
B         -5.25398        0.01837        0.28013
B         -5.23122        1.84933        0.51461
B         -6.41573        0.91206        1.10687
B         -6.43910       -0.64049        1.10637
B          1.81365        0.83543       -0.85289
B         -2.77072       -0.46495        1.63848
B          0.32733       -1.69053       -0.93161
B          5.95002       -1.70678        0.73746
B          6.17030        0.00332        0.80462
B          5.99856        1.73608        0.80913
B         -0.98585       -1.15944       -0.42045
