45
isomer_1429.log	Energy: -113456.0025158
B         -2.87163        0.94094        0.34878
B         -2.84957        2.63243       -0.63800
B         -1.56683        3.47115       -0.77370
B         -0.12684        3.04213        0.04981
B         -1.32862        0.36072        0.60635
B          1.64015        0.81955        0.75610
B          1.23167        3.95116       -0.58985
B         -4.43565        0.92879        0.81593
B          1.46202        2.42361        0.16979
B         -4.18059        2.03624       -0.30461
B         -0.20947        4.23778       -0.97757
B          2.73691        3.36878       -0.30499
B          2.97797        1.88717        0.44590
B          4.53547        1.17484        0.25796
B          0.48762       -2.23978        1.19043
B          1.92974       -2.46636        0.28498
B          3.24124       -1.50890        0.31161
B          4.53641       -0.48001       -0.06890
B          4.69804       -2.08153       -0.56742
B          3.31211       -2.94435       -0.49956
B          1.93868       -3.60291       -1.01954
B          0.50016       -3.34605       -0.04290
B          0.54107       -3.89425       -1.53239
B         -2.21790       -2.68672       -0.76681
B         -0.88853       -3.42208       -1.16035
B         -2.23267       -1.18700        0.46906
B         -3.56434       -2.05714       -0.39994
B         -3.84532       -0.62751        0.36477
B         -0.97151       -2.40122        0.17470
B         -1.47597        1.87989       -0.07596
B          3.21165        0.16744        0.76646
B         -0.87594       -1.15837        1.40140
B          4.22043        2.76099       -0.41251
B         -5.72466        1.43063       -0.14045
B         -5.53068       -0.19156        0.29880
B         -5.06180       -1.63932       -0.45644
B         -6.39326       -0.96435       -0.85732
B         -6.75712        0.45305       -0.66078
B          1.83817       -0.88758        1.25589
B          0.61517       -1.15338        2.35954
B          0.06231        1.48352        0.62129
B          5.47035        1.96864       -0.76504
B          5.84419        0.46971       -0.71974
B          5.82616       -1.10058       -0.77787
B          0.25120        0.15179        1.56309
