45
isomer_0143.log	Energy: -113382.8266625
B          2.31410        1.88652       -0.51879
B          2.38957        3.60354       -0.27901
B          1.00958        4.33548       -0.34412
B         -0.42980        3.54768       -0.85909
B          1.07365        1.06478       -1.22513
B         -1.65991        0.87270       -0.89429
B         -1.78163        4.18564        0.04902
B          3.51163        1.10348        0.20034
B         -1.78812        2.55684       -0.62193
B          3.57221        2.75791        0.19188
B         -0.39290        4.84182        0.05972
B         -3.08439        3.26432        0.21578
B         -3.09047        1.66005       -0.21554
B         -4.37191        0.70992        0.35686
B         -0.25587       -1.79792       -1.65318
B         -1.29957       -2.37967       -0.25075
B         -2.78139       -1.66966       -0.11763
B         -4.18766       -0.94688        0.30065
B         -3.93825       -2.51342        0.90953
B         -2.58249       -3.29225        0.34967
B         -1.31091       -4.10125        0.08667
B         -0.07993       -3.34963       -1.04974
B          0.16625       -4.61771       -0.00669
B          2.63485       -3.11026       -0.57014
B          1.53180       -4.25237       -0.54840
B          2.07727       -1.42120       -0.17841
B          3.65453       -2.16621        0.20711
B          3.45140       -0.54139        0.20876
B          1.33375       -2.32252       -1.43575
B          1.02482        2.68242       -1.05795
B         -3.01869       -0.04883       -0.48084
B          0.88748       -0.53307       -1.13098
B         -4.27885        2.36906        0.83242
B          4.77268        1.91449        1.01878
B          4.40522        0.28392        1.30464
B          4.75718       -1.38895        1.01232
B          5.85525       -0.44979        1.57556
B          5.83392        1.03609        1.66766
B         -1.13240       -0.68407       -0.72717
B          1.05124       -2.94305        0.34318
B         -0.41978        1.84078       -1.28252
B         -5.26521        1.37506        1.48961
B         -5.36962       -0.16206        1.48291
B         -5.04517       -1.67754        1.47309
B          0.25654       -1.52275        0.11188
