45
isomer_1430.log	Energy: -111389.3662581
B          2.58683        1.69575       -0.50735
B          2.58158        3.33520       -0.13347
B          1.17676        4.16719        0.11365
B         -0.28350        3.33385       -0.42563
B          1.12520        0.80372       -0.80197
B         -1.74991        0.83497       -0.87219
B         -1.66956        4.12294        0.26756
B          4.04525        0.82090       -0.43818
B         -1.66662        2.44136       -0.31812
B          3.98925        2.51465        0.01245
B         -0.24353        4.78605        0.39690
B         -3.10195        3.27703        0.29280
B         -3.13257        1.65346       -0.26732
B         -4.59019        0.84361        0.24021
B         -0.31780       -1.72252       -0.93653
B         -1.69750       -2.41424       -0.30036
B         -3.15331       -1.60740       -0.25539
B         -4.60048       -0.77538        0.24613
B         -4.44150       -2.33317        0.49615
B         -3.14332       -3.22708        0.31659
B         -1.72180       -4.09130        0.29761
B         -0.32585       -3.32500       -0.40126
B         -0.30432       -4.77154        0.43187
B          2.53900       -3.36066       -0.10898
B          1.12371       -4.17288        0.14416
B          2.56508       -1.72419       -0.49484
B          3.95700       -2.55704        0.03101
B          4.03451       -0.86747       -0.43201
B          1.12889       -2.53992       -0.64684
B          1.16113        2.52855       -0.66538
B         -3.22776        0.12212       -0.65790
B          1.11490       -0.81582       -0.79604
B         -4.41139        2.40104        0.47883
B          5.31105        1.70331        0.51236
B          5.29655        0.07135        0.28443
B          5.28903       -1.75894        0.52503
B          6.46361       -0.80941        1.11752
B          6.47349        0.74328        1.11184
B         -1.76038       -0.81101       -0.86617
B          1.38775        0.47349        2.04959
B         -0.29586        1.72751       -0.94915
B         -5.92331        1.70042        0.70366
B         -6.12891       -0.01130        0.77597
B         -5.94211       -1.74247        0.78684
B          0.48287       -0.66299       -0.35807
