45
isomer_1431.log	Energy: -112421.9127850
B          2.62083       -1.64054        0.41057
B          2.62287       -3.27864        0.03080
B          1.22150       -4.11759       -0.21232
B         -0.24067       -3.29440        0.33725
B          1.15573       -0.75778        0.71571
B         -1.71878       -0.80541        0.80018
B         -1.62576       -4.08876       -0.35186
B          4.07397       -0.75727        0.33730
B         -1.62928       -2.40931        0.23989
B          4.02518       -2.44968       -0.11918
B         -0.19671       -4.74339       -0.49071
B         -3.06297       -3.25081       -0.36688
B         -3.09985       -1.62946        0.19926
B         -4.56450       -0.82599       -0.29805
B         -0.30068        1.75982        0.86662
B         -1.68740        2.44607        0.23985
B         -3.13888        1.63125        0.19924
B         -4.58388        0.79294       -0.29806
B         -4.43486        2.35248       -0.54323
B         -3.14082        3.25301       -0.36692
B         -1.72408        4.12512       -0.35191
B         -0.32038        3.36415        0.33721
B         -0.31111        4.81377       -0.49078
B          2.54273        3.41693        0.03075
B          1.12167        4.22210       -0.21237
B          2.57990        1.77926        0.41055
B          3.96448        2.62178       -0.11922
B          4.05376        0.93103        0.33728
B          1.13994        2.58637        0.57267
B          1.20061       -2.48188        0.57271
B         -3.20164       -0.10010        0.59585
B          1.13634        0.86169        0.71570
B         -4.37820       -2.38152       -0.54320
B          5.33991       -1.62915       -0.62275
B          5.31742        0.00187       -0.38884
B          5.29846        1.83294       -0.62277
B          6.47535        0.89215       -1.22455
B          6.49393       -0.66046       -1.22454
B         -1.73848        0.84050        0.80017
B          0.99639       -1.73302       -0.09272
B         -0.25939       -1.69005        0.86665
B         -5.89512       -1.68859       -0.75794
B         -6.11065        0.02220       -0.82303
B         -5.93359        1.75442       -0.82856
B         -0.08333        0.11194        1.73418
