45
isomer_1432.log	Energy: -113511.9102021
B         -3.56843        0.71166        0.54290
B         -3.81266        2.36862        0.19079
B         -2.60860        3.39768        0.11669
B         -0.98147        2.81325        0.53712
B         -2.05795        0.09353        0.89265
B          1.15653        0.61477        0.67897
B          0.09514        3.93209       -0.21246
B         -4.89785       -0.15460        0.77268
B          0.58153        2.23453        0.23544
B         -5.09298        1.35389        0.21507
B         -1.36198        4.25248       -0.10338
B          1.57658        3.43369       -0.42662
B          2.23790        2.02205        0.09490
B          3.93104        1.88866       -0.26071
B          0.92811       -1.01104        1.42359
B          2.91267       -2.01464       -0.61872
B          3.78394       -0.83071        0.81117
B          4.54365        0.28259       -0.28783
B          4.71297       -1.48926       -0.59217
B          4.18362       -2.48008        0.60711
B          2.86800       -3.41399        0.53452
B          1.40862       -2.42981        0.47517
B          1.89367       -3.46909       -0.74381
B         -1.20891       -2.78363       -0.57356
B          0.32082       -3.20270       -0.66205
B         -1.84539       -1.44507        0.35206
B         -2.77750       -2.47788       -0.58112
B         -3.53402       -1.12351        0.21691
B         -0.18358       -1.91581        0.33710
B         -2.30188        1.79487        0.62232
B          3.21937        0.79394        0.80304
B         -0.60206       -0.50227        1.22976
B          2.99864        3.06539       -1.07740
B         -6.16479        0.21583       -0.32568
B         -5.22875       -1.26445       -0.28981
B         -4.21882       -2.25492       -1.13735
B         -5.57659       -1.88453       -1.75954
B         -6.53806       -0.83036       -1.30352
B          2.38013       -0.23730        1.81247
B          2.67665       -1.93696        1.46032
B         -0.61474        1.21239        0.79921
B          4.24493        2.47971       -1.69514
B          5.04056        1.12003       -1.62388
B          5.34737       -0.35521       -1.49359
B          2.13456       -0.57377        0.00639
