45
isomer_1433.log	Energy: -113468.3746827
B         -2.32696       -1.79380       -0.34990
B         -2.32985       -3.53442       -0.08423
B         -0.96576       -4.29493       -0.17639
B          0.43407       -3.40521       -0.59577
B         -1.20938       -1.00160       -1.20365
B          1.71453       -0.79902       -0.83390
B          1.86828       -4.15476       -0.03354
B         -3.46350       -1.04286        0.44362
B          1.83770       -2.47025       -0.60453
B         -3.57970       -2.68683        0.37694
B          0.49777       -4.85681        0.00631
B          3.19212       -3.21554        0.05840
B          3.17970       -1.58362       -0.26697
B          4.48653       -0.57812        0.12720
B          0.21951        1.72036       -1.60194
B          1.08368        2.32099        0.10222
B          2.74043        1.84974       -0.02409
B          4.15346        1.01614        0.53477
B          3.76391        2.58267        1.16541
B          2.45693        3.32126        0.57703
B          1.17809        4.13513        0.12537
B          0.08070        3.29536       -0.92664
B         -0.11300        4.78596       -0.32437
B         -2.65392        3.22693       -0.41944
B         -1.44996        4.13234       -0.68070
B         -2.16823        1.53414       -0.07526
B         -3.70444        2.29567        0.25240
B         -3.44350        0.70798        0.50906
B         -1.36101        2.42012       -1.27488
B         -1.11013       -2.70784       -0.95053
B          3.14046        0.19703       -0.56835
B         -1.29514        0.67641       -1.26145
B          4.40851       -2.29819        0.62758
B         -4.88987       -1.86621        0.93952
B         -4.65693       -0.19852        1.15062
B         -4.92790        1.45023        0.92205
B         -6.11419        0.52472        1.32732
B         -6.08704       -0.97053        1.33923
B          1.60898        0.93434       -0.96793
B         -0.32022        1.39208        0.08258
B          0.36144       -1.77482       -1.09269
B          5.30140       -1.28242        1.31003
B          5.32531        0.25798        1.51358
B          4.95382        1.75889        1.67204
B          0.18332       -0.02017       -0.84610
