45
isomer_1437.log	Energy: -113380.1540978
B         -2.74341        1.59177        0.62206
B         -2.73068        3.28967       -0.07903
B         -1.39172        4.09174       -0.15742
B          0.06970        3.24855        0.25221
B         -1.38021        0.79771        0.96721
B          1.62392        0.78727        0.88667
B          1.44454        4.21746       -0.09015
B         -4.11010        0.84029        0.21912
B          1.56433        2.54860        0.63293
B         -3.99100        2.41713       -0.22911
B          0.01390        4.74714       -0.27587
B          2.82508        3.43352       -0.04722
B          2.98437        1.80721        0.32330
B          4.46885        1.03187        0.00023
B          0.14682       -1.74433        1.41854
B          2.18802       -2.80246        0.60834
B          3.09035       -1.56361       -0.05988
B          4.33744       -0.53182       -0.57773
B          4.36382       -2.13860       -1.16713
B          3.11708       -3.06281       -0.73571
B          1.75550       -3.89460       -0.64895
B          0.49227       -3.29365        0.60084
B          0.37924       -4.43740       -0.58562
B         -2.40899       -3.19770       -0.15258
B         -0.98145       -3.93931       -0.22714
B         -2.59963       -1.62956        0.59613
B         -3.76777       -2.40893       -0.35119
B         -3.99363       -0.89666        0.19748
B         -1.15523       -2.49314        0.57631
B         -1.36019        2.34352        0.23496
B          3.16337        0.05719        0.49598
B         -1.24996       -0.84487        1.14007
B          4.21033        2.70459       -0.44832
B         -5.29893        1.54905       -0.75096
B         -5.32054       -0.08944       -0.35342
B         -5.16582       -1.71404       -0.80691
B         -6.24500       -0.87715       -1.48539
B         -6.28291        0.61408       -1.48970
B          1.83520       -0.90533        1.17834
B          1.44681       -2.39334        1.89427
B          0.13750        1.66682        0.74512
B          5.30626        1.87092       -1.08862
B          5.58282        0.37987       -1.32960
B          5.44331       -1.14450       -1.55635
B          0.18633       -0.03275        1.10387
