45
isomer_1438.log	Energy: -113420.5882427
B         -2.67408        1.60074        0.71984
B         -2.70308        3.20317        0.06849
B         -1.35360        4.10625       -0.03930
B          0.12414        3.42865        0.57489
B         -1.21660        0.78922        1.00794
B          1.48222        0.82015        0.13746
B          1.44606        4.18187       -0.40749
B         -3.97150        0.69635        0.25594
B          1.52675        2.59408        0.16528
B         -3.95934        2.28623       -0.11073
B         -0.01323        4.69408       -0.42614
B          2.81936        3.37124       -0.50891
B          2.93227        1.73418       -0.07350
B          4.44826        1.01696       -0.06978
B          0.32878       -1.68344        0.76216
B          1.84918       -2.43941        0.57942
B          3.19621       -1.54696        0.52764
B          4.54585       -0.67596        0.03900
B          4.57187       -2.37994       -0.33161
B          3.21778       -3.18290        0.02895
B          1.88844       -4.07670       -0.12867
B          0.41271       -3.28923        0.23796
B          0.49989       -4.72839       -0.40221
B         -2.38130       -3.35393       -0.29840
B         -0.93861       -4.14063       -0.34231
B         -2.50862       -1.74806        0.26925
B         -3.80378       -2.59157       -0.38696
B         -3.88179       -0.97697       -0.02078
B         -1.10951       -2.55383        0.37077
B         -1.30837        2.52556        0.65685
B          3.14978        0.12166        0.59988
B         -1.19280       -0.79657        0.69777
B          4.20138        2.53603       -0.89608
B         -5.35406        1.45052       -0.45377
B         -5.31815       -0.20428       -0.10756
B         -5.18481       -1.80717       -0.75939
B         -6.30593       -0.88925       -1.24583
B         -6.44489        0.59096       -1.04522
B          1.68213       -0.68795        1.09846
B          0.17555       -0.14034       -0.10998
B          0.22340        1.76667        0.92093
B          5.33725        1.61773       -1.25437
B          5.67047        0.09415       -1.02819
B          5.61829       -1.44682       -0.88181
B          0.27604        0.11385        1.61011
