45
isomer_0144.log	Energy: -113743.6000145
B          3.22914       -0.15727        2.18085
B          3.88566       -1.31720        0.70848
B          3.02221       -1.84609       -0.68711
B          1.24090       -1.92437       -0.04033
B          2.33197        1.00744        0.94235
B         -1.11973       -0.58327        1.04743
B          0.38319       -3.05185       -0.91776
B          4.08981        0.66411        0.76707
B         -0.43890       -1.95324        0.28725
B          4.76276       -0.46187        1.90295
B          1.86386       -2.86550       -1.14939
B         -1.22353       -3.10710       -0.66208
B         -2.04587       -1.96978        0.16959
B         -3.76786       -2.04617        0.03689
B         -1.07543        1.55800        1.06769
B         -2.83680        1.98014        0.87793
B         -3.88565        0.65420        0.87773
B         -4.73841       -0.73991        0.48473
B         -5.33947        0.81176       -0.04586
B         -4.35928        2.08840        0.18485
B         -3.27143        3.10621       -0.35945
B         -1.57665        2.89759        0.11269
B         -2.13435        3.71244       -1.17934
B          0.81810        2.74874       -1.43136
B         -0.69623        3.32102       -1.28689
B          1.58090        2.01985       -0.17155
B          2.14264        2.02882       -1.77964
B          3.26379        1.63865       -0.47009
B         -0.01555        2.29025        0.04521
B          2.22357       -0.84520        0.80983
B         -3.10045       -0.87541        1.02144
B          0.49876        0.91242        1.16900
B         -2.83173       -3.17706       -0.84413
B          5.44112       -0.50016        0.48170
B          4.56890        0.61013       -0.85762
B          3.25530        0.87408       -2.09068
B          3.84912       -0.60070       -1.99022
B          4.81065       -1.14163       -0.85154
B         -2.24293        0.48716        1.41502
B          2.82444       -0.07368       -0.63202
B          0.50364       -0.86128        1.20618
B         -4.32919       -3.05217       -1.08191
B         -5.29707       -1.88829       -0.81911
B         -5.87527       -0.47316       -0.63720
B          1.61134        0.10093        2.18843
