45
isomer_1441.log	Energy: -113458.2552937
B         -2.64312       -1.53993       -0.56742
B         -2.62258       -3.24448        0.00813
B         -1.32062       -4.06157       -0.05442
B          0.19831       -3.32442       -0.78069
B         -1.22188       -0.75548       -0.92339
B          1.67673       -0.91917       -0.97184
B          1.46840       -4.09859        0.23406
B         -3.98278       -0.78041       -0.27604
B          1.34411       -2.35022        0.15320
B         -3.90188       -2.35492        0.18872
B          0.07846       -4.64484        0.18150
B          2.80275       -3.27293        0.45534
B          2.97178       -1.80153       -0.18547
B          4.32248       -0.87226        0.36202
B          0.32477        1.78517       -0.97073
B          1.80215        2.54595       -0.60123
B          3.15213        1.67685       -0.28952
B          4.54930        0.73719       -0.00365
B          4.45122        2.41837        0.53592
B          3.11810        3.28281        0.16155
B          1.76491        4.13446        0.21375
B          0.33204        3.36881       -0.39854
B          0.35325        4.72056        0.42161
B         -2.46959        3.41427        0.09136
B         -1.09129        4.15932        0.19839
B         -2.55538        1.73095       -0.65931
B         -3.74146        2.56371        0.26995
B         -3.93558        0.98912       -0.21645
B         -1.14663        2.51129       -0.42438
B         -1.19125       -2.38593       -0.38513
B          3.18251       -0.08073       -0.59029
B         -1.22499        0.93786       -1.04479
B          4.16617       -2.51312        0.85664
B         -5.22685       -1.53313        0.69910
B         -5.21817        0.12984        0.32961
B         -5.06152        1.74123        0.78599
B         -6.12091        0.83935        1.49467
B         -6.22348       -0.64487        1.41034
B          1.74035        0.85504       -0.85934
B          0.11064       -1.26007        0.17837
B          0.29217       -1.81387       -1.48164
B          5.36089       -1.63892        1.27433
B          5.61090       -0.10799        1.18312
B          5.47596        1.45200        1.08137
B          0.24951        0.00524       -1.08475
