45
isomer_1443.log	Energy: -113364.7524659
B          2.48600        1.71836       -0.60480
B          2.41215        3.44704       -0.06019
B          1.05665        4.19078       -0.01406
B         -0.37365        3.34989       -0.45420
B          1.20745        0.86026       -1.08070
B         -1.74715        0.81334       -0.56756
B         -1.79122        4.16572        0.16076
B          3.81725        0.99688       -0.11077
B         -1.78382        2.50015       -0.34309
B          3.73554        2.64093        0.13966
B         -0.38310        4.77304        0.22565
B         -3.16068        3.30456        0.20334
B         -3.19526        1.66277       -0.17898
B         -4.63948        0.79093        0.00538
B         -0.41676       -1.72529       -1.39369
B         -1.59531       -2.51625       -0.34614
B         -3.01341       -1.69784       -0.07103
B         -4.42289       -0.85152        0.38489
B         -4.29953       -2.50132        0.82232
B         -2.86955       -3.27946        0.38702
B         -1.42931       -4.01263        0.38731
B         -0.02467       -3.32661       -0.54331
B         -0.01211       -4.42954        0.63882
B          2.76564       -3.23835        0.29310
B          1.38974       -3.91940        0.42317
B          2.58776       -1.55746       -0.33745
B          3.95576       -2.27463        0.40095
B          3.91999       -0.71347       -0.05024
B          1.71057       -2.83954       -0.92984
B          1.13305        2.57871       -0.74587
B         -3.26201       -0.04613       -0.52354
B          1.22851       -0.88960       -1.03647
B         -4.45992        2.45300        0.63075
B          5.03474        1.91304        0.76268
B          5.14791        0.26193        0.46674
B          5.23626       -1.35812        0.88183
B          6.21968       -0.40078        1.53294
B          6.09770        1.09227        1.51585
B         -1.71176       -0.81479       -0.78421
B         -0.20361       -0.04680       -0.90085
B         -0.36036        1.68762       -0.79708
B         -5.49646        1.45589        1.16125
B         -5.71297       -0.07208        1.19089
B         -5.48347       -1.64881        1.24817
B          0.70612       -2.49669       -1.98940
