45
isomer_1444.log	Energy: -113500.9628853
B          2.24149        1.95522       -0.32204
B          2.07291        3.51098        0.20789
B          0.59248        4.21732        0.31917
B         -0.74120        3.36598       -0.33156
B          0.90223        0.94172       -0.81327
B         -1.90808        0.73587       -0.81740
B         -2.22084        3.99939        0.33832
B          3.72104        1.18319       -0.09062
B         -2.10380        2.38764       -0.40372
B          3.53637        2.83715        0.32601
B         -0.85987        4.68273        0.55426
B         -3.51781        3.06055        0.22347
B         -3.48092        1.49791       -0.33368
B         -4.82687        0.49003       -0.13336
B         -0.33666       -1.52971       -1.36859
B         -1.49492       -2.42920       -0.46819
B         -3.01805       -1.88627       -0.29121
B         -4.44664       -1.10309        0.20947
B         -4.10950       -2.70255        0.73915
B         -2.63278       -3.32782        0.37544
B         -1.10827       -3.88602        0.32220
B         -0.00236       -3.19629       -0.71809
B          0.41584       -4.12218        0.65996
B          3.02706       -3.12981        0.68518
B          1.90949       -4.05316        1.10515
B          2.57255       -1.70902       -0.57239
B          4.12789       -2.08734        0.25263
B          3.86255       -0.55877       -0.22151
B          1.66068       -3.20735       -0.20743
B          0.77319        2.64716       -0.42602
B         -3.36471       -0.18434       -0.72690
B          1.07573       -0.63572       -1.05296
B         -4.81059        2.12779        0.54233
B          4.95047        2.13535        0.61722
B          5.21610        0.48950        0.13362
B          5.40964       -1.18687        0.39269
B          6.47340       -0.16078        0.90298
B          6.23279        1.31801        1.05838
B         -1.78360       -0.85979       -1.10865
B          2.37909        0.22559       -0.52951
B         -0.61852        1.71499       -0.82736
B         -5.77348        1.07316        1.02693
B         -5.80099       -0.47706        1.05662
B         -5.39679       -1.97534        1.13673
B          1.20425       -2.18878       -1.42134
