45
isomer_1445.log	Energy: -113675.8826163
B          2.56151        1.73177       -0.52892
B          2.51031        3.30402        0.03864
B          1.15262        4.14888        0.11189
B         -0.27161        3.40222       -0.53634
B          1.16891        0.85050       -1.06920
B         -1.71967        0.84303       -0.79522
B         -1.64545        4.16810        0.25997
B          3.98307        0.84745       -0.22452
B         -1.72726        2.55038       -0.43255
B          3.86779        2.48670        0.27646
B         -0.22409        4.74742        0.35557
B         -3.01121        3.33739        0.27925
B         -3.13064        1.73123       -0.22306
B         -4.54692        0.89069        0.14772
B         -0.36689       -1.82587       -1.11486
B         -1.79922       -2.53304       -0.48574
B         -3.17169       -1.68184       -0.25859
B         -4.53350       -0.80135        0.23303
B         -4.40454       -2.44588        0.75044
B         -3.08850       -3.28171        0.26825
B         -1.74397       -4.14435        0.24904
B         -0.34792       -3.38548       -0.51419
B         -0.33731       -4.74555        0.35411
B          2.43028       -3.33284        0.04106
B          1.05118       -4.15669        0.12417
B          2.51132       -1.75903       -0.49083
B          3.81218       -2.53514        0.29189
B          3.95727       -0.90783       -0.21593
B          1.12154       -2.58934       -0.76548
B          1.18341        2.57776       -0.78746
B         -3.29364        0.01485       -0.60923
B          1.13150       -0.84855       -1.04553
B         -4.32988        2.49703        0.76958
B          5.10366        1.65497        0.84534
B          5.19594       -0.04127        0.52226
B          5.06269       -1.73558        0.86365
B          6.08539       -0.81020        1.61220
B          6.10457        0.71073        1.60525
B         -1.78311       -0.83071       -0.90776
B          2.60959       -0.01493       -0.74612
B         -0.31449        1.83082       -1.08747
B         -5.37836        1.56804        1.33582
B         -5.62097        0.03109        1.30319
B         -5.47101       -1.52042        1.30179
B         -0.34292        0.00252       -1.10157
