45
isomer_0145.log	Energy: -113380.1539704
B         -2.74421        1.59022        0.62174
B         -2.73267        3.28836       -0.07874
B         -1.39481        4.09169       -0.15533
B          0.06741        3.25056        0.25685
B         -1.38097        0.79641        0.96702
B          1.62301        0.78724        0.88218
B          1.44180        4.21865       -0.08970
B         -4.11040        0.83874        0.21832
B          1.56250        2.54897        0.63187
B         -3.99256        2.41557       -0.22959
B          0.01088        4.74802       -0.27407
B          2.82307        3.43549       -0.04875
B          2.98342        1.81008        0.32075
B          4.46757        1.03357       -0.00109
B          0.14638       -1.74510        1.42173
B          2.19039       -2.80197        0.61040
B          3.09124       -1.56264       -0.05907
B          4.33653       -0.53026       -0.57994
B          4.36783       -2.13876       -1.16348
B          3.12152       -3.06329       -0.73216
B          1.75935       -3.89395       -0.64700
B          0.49389       -3.29267        0.60025
B          0.38214       -4.43574       -0.58626
B         -2.40762       -3.19932       -0.15295
B         -0.97933       -3.93956       -0.22848
B         -2.59846       -1.63168        0.59506
B         -3.76663       -2.41073       -0.35206
B         -3.99201       -0.89795        0.19448
B         -1.15395       -2.49397        0.57603
B         -1.36108        2.34364        0.23802
B          3.16236        0.05906        0.49351
B         -1.24980       -0.84574        1.14020
B          4.20855        2.70673       -0.45101
B         -5.30057        1.54714       -0.75047
B         -5.32062       -0.09165       -0.35342
B         -5.16473       -1.71592       -0.80814
B         -6.24476       -0.87923       -1.48564
B         -6.28443        0.61192       -1.48869
B          1.83515       -0.90432        1.17659
B          1.44761       -2.39183        1.89455
B          0.13689        1.66724        0.74604
B          5.30494        1.87242       -1.08980
B          5.58313        0.38156       -1.32903
B          5.44628       -1.14375       -1.55319
B          0.18573       -0.03326        1.10245
