45
isomer_1450.log	Energy: -113510.9147236
B         -2.56198       -1.73948       -0.90658
B         -2.34092       -3.03970        0.29915
B         -0.92704       -3.86247        0.38230
B          0.40474       -3.28746       -0.50277
B         -1.03016       -0.79306       -0.96543
B          1.80949       -0.75517       -0.80088
B          1.84740       -4.00872        0.20052
B         -3.98189       -0.91924       -0.62807
B          1.87391       -2.42714       -0.55510
B         -3.84504       -2.63849        0.24971
B          0.43933       -4.50664        0.54582
B          3.22802       -3.22457        0.05884
B          3.33055       -1.65793       -0.44705
B          4.74312       -0.78001       -0.15962
B          0.36552        1.67566       -0.86276
B          1.73733        2.45694       -0.21653
B          3.20350        1.75637       -0.19192
B          4.56918        0.83416        0.23324
B          4.46809        2.47493        0.72298
B          3.05710        3.26663        0.41210
B          1.63805        4.09104        0.40083
B          0.32570        3.34661       -0.40599
B          0.22747        4.69334        0.41877
B         -2.52382        3.32766       -0.18988
B         -1.18346        4.10823        0.02898
B         -2.53378        1.62310       -0.47882
B         -3.89836        2.47973       -0.05449
B         -3.96138        0.82926       -0.55248
B         -1.14198        2.54495       -0.70325
B         -1.05880       -2.45540       -0.68085
B          3.32887        0.06322       -0.64393
B         -1.00940        0.80143       -0.72191
B          4.60378       -2.40776        0.43649
B         -4.84826       -1.63014        0.84271
B         -5.22059       -0.04557        0.17624
B         -5.14879        1.66862        0.48364
B         -6.13898        0.78733        1.24572
B         -5.90843       -0.65044        1.51262
B          1.76551        0.83830       -0.81918
B         -2.95510       -1.34495        0.82927
B          0.41680       -1.59810       -0.96323
B          5.66819       -1.47218        0.96677
B          5.89672        0.05860        0.99926
B          5.67908        1.59339        1.07759
B         -2.40929       -0.07486       -0.07282
