45
isomer_1451.log	Energy: -111184.1834648
B          2.44499        1.87981       -0.42054
B          2.37148        3.51797       -0.04821
B          0.93249        4.29471        0.18159
B         -0.48773        3.40489       -0.37413
B          1.02278        0.93140       -0.73158
B         -1.85033        0.85060       -0.83574
B         -1.91156        4.13969        0.30197
B          3.93545        1.06245       -0.33341
B         -1.83621        2.45926       -0.28215
B          3.80821        2.75293        0.11504
B         -0.51407        4.85790        0.44752
B         -3.31012        3.23864        0.31106
B         -3.27087        1.61487       -0.24794
B         -4.70174        0.74908        0.24308
B         -0.31905       -1.64919       -0.88091
B         -1.67819       -2.39385       -0.26044
B         -3.16474       -1.64431       -0.23336
B         -4.64905       -0.86908        0.25032
B         -4.43249       -2.41939        0.50358
B         -3.09845       -3.26213        0.34013
B         -1.64423       -4.07034        0.33869
B         -0.27101       -3.25054       -0.34436
B         -0.20302       -4.69479        0.49025
B          2.58939       -3.17447       -0.01827
B          1.20392       -4.04108        0.21887
B          2.55629       -1.53839       -0.40525
B          3.97327       -2.31616        0.13771
B          3.99040       -0.62505       -0.32586
B          1.15485       -2.40950       -0.57346
B          0.98990        2.65637       -0.59612
B         -3.30173        0.08082       -0.63826
B          1.07549       -0.68732       -0.72434
B         -4.58656        2.31239        0.48241
B          5.15461        1.99390        0.63122
B          5.20636        0.36252        0.40458
B          5.26728       -1.46657        0.64670
B          6.39691       -0.47175        1.25216
B          6.34638        1.08013        1.24522
B         -1.79676       -0.79453       -0.82838
B          3.94929       -1.64120       -0.84082
B         -0.43133        1.79907       -0.89634
B         -6.07260        1.55351        0.69002
B         -6.21223       -0.16489        0.76142
B         -5.95830       -1.88746        0.77602
B          1.33263       -2.12093        0.07032
