45
isomer_1455.log	Energy: -112607.0392148
B         -2.62048       -1.66211       -0.44266
B         -2.58446       -3.34214       -0.06928
B         -1.15957       -4.20465        0.14986
B          0.29401       -3.36109       -0.38590
B         -1.13787       -0.76374       -0.75150
B          1.75516       -0.81179       -0.84691
B          1.68310       -4.12254        0.30077
B         -4.03213       -0.78049       -0.38015
B          1.69176       -2.44228       -0.28328
B         -3.98001       -2.46599        0.07434
B          0.27726       -4.77429        0.42455
B          3.09621       -3.26200        0.32049
B          3.13627       -1.63847       -0.23652
B          4.58212       -0.80170        0.25427
B          0.32823        1.77096       -0.91059
B          1.70832        2.46724       -0.28348
B          3.14859        1.65722       -0.24368
B          4.58245        0.82129        0.24536
B          4.45072        2.39167        0.51271
B          3.12000        3.27278        0.32226
B          1.71021        4.13403        0.30549
B          0.31811        3.38058       -0.38072
B          0.30352        4.78094        0.43119
B         -2.53466        3.40878       -0.07716
B         -1.13009        4.21596        0.15903
B         -2.58886        1.76377       -0.45053
B         -3.95118        2.57578        0.07539
B         -4.02268        0.91965       -0.37991
B         -1.14697        2.60416       -0.61178
B         -1.16400       -2.59281       -0.65679
B          3.22985       -0.07444       -0.63359
B         -1.15384        0.84912       -0.79266
B          4.44798       -2.38368        0.51286
B         -5.27269       -1.64643        0.57240
B         -5.25557       -0.00431        0.33857
B         -5.24338        1.78716        0.56801
B         -6.38258        0.84625        1.15943
B         -6.41425       -0.66842        1.16908
B          1.76237        0.85492       -0.84692
B         -1.09192       -1.96376        0.28282
B          0.31372       -1.71669       -0.91334
B          5.87523       -1.60721        0.70557
B          6.05417        0.05433        0.76209
B          5.86754        1.69437        0.76789
B         -0.86975        0.84008        0.16291
