45
isomer_1456.log	Energy: -113434.6979437
B         -2.60477        1.63048        0.67820
B         -2.52142        3.23725        0.06050
B         -1.16946        4.11592       -0.04499
B          0.30596        3.37581        0.48985
B         -1.13112        0.83769        1.03810
B          1.56530        0.74740        0.09577
B          1.63620        4.14497       -0.34980
B         -4.02123        0.79869        0.41998
B          1.69752        2.50476        0.27244
B         -3.88076        2.36212       -0.14410
B          0.22282        4.72041       -0.36792
B          3.04659        3.30296       -0.37607
B          3.06962        1.69359       -0.06270
B          4.53976        0.82844       -0.01443
B          0.25610       -1.64220        0.64065
B          1.68864       -2.49207        0.52197
B          3.12244       -1.75221        0.40381
B          4.40567       -0.82997       -0.26092
B          4.42766       -2.52703       -0.45917
B          3.01169       -3.29610       -0.11791
B          1.62712       -4.18417       -0.12022
B          0.24462       -3.26819        0.21298
B          0.21266       -4.76956       -0.27425
B         -2.59094       -3.26269       -0.08786
B         -1.21137       -4.10156       -0.18400
B         -2.66701       -1.58308        0.36068
B         -3.99033       -2.41729       -0.26289
B         -4.09931       -0.87612        0.40686
B         -1.27268       -2.45604        0.33466
B         -1.21359        2.55571        0.68092
B          3.13204        0.01057        0.47195
B         -1.20919       -0.69732        0.60140
B          4.42004        2.47241       -0.71190
B         -5.15465        1.65586       -0.67609
B         -5.31301        0.00326       -0.33788
B         -5.28544       -1.67235       -0.69746
B         -6.39155       -0.72010       -1.29811
B         -6.30492        0.76691       -1.33119
B          1.69424       -0.75506        1.08602
B          0.17869       -0.04766       -0.15184
B          0.35292        1.73302        0.93556
B          5.51307        1.48696       -1.07658
B          5.74405       -0.07164       -0.98138
B          5.59102       -1.63948       -0.90619
B          0.32630        0.07669        1.58356
