45
isomer_1457.log	Energy: -113656.8997809
B          2.57633       -1.70488        0.42923
B          2.62661       -3.32208        0.02734
B          1.26073       -4.07536       -0.29107
B         -0.21367       -3.36833        0.30707
B          1.14708       -0.86091        0.85714
B         -1.74656       -0.82528        0.64698
B         -1.57335       -4.05516       -0.52668
B          3.99222       -0.81355        0.27503
B         -1.67174       -2.52431        0.35929
B          4.00542       -2.48473       -0.10362
B         -0.11992       -4.59415       -0.71788
B         -2.99790       -3.33666       -0.31642
B         -3.13579       -1.78123        0.24404
B         -4.61630       -0.95669        0.10924
B         -0.39518        1.81243        1.04259
B         -1.84801        2.50260        0.39245
B         -3.22591        1.65125        0.30104
B         -4.59862        0.73042       -0.12456
B         -4.52846        2.37231       -0.65464
B         -3.17271        3.22311       -0.30794
B         -1.82268        4.09589       -0.35118
B         -0.39939        3.36463        0.38206
B         -0.41864        4.70760       -0.50001
B          2.40882        3.37096       -0.14517
B          1.00204        4.15139       -0.26158
B          2.46160        1.77646        0.30372
B          3.82155        2.57326       -0.33716
B          3.91820        0.95154        0.15333
B          1.08382        2.61185        0.62996
B          1.22441       -2.55954        0.68495
B         -3.31598       -0.04320        0.69713
B          1.09424        0.86818        0.82831
B         -4.39806       -2.54450       -0.60132
B          5.30442       -1.63508       -0.50881
B          5.21040        0.08079       -0.43319
B          5.14783        1.77575       -0.74180
B          6.35561        0.84779       -1.21264
B          6.44368       -0.67274       -1.08544
B         -1.81964        0.83440        0.92801
B          2.57307        0.03492        0.68690
B         -0.36421       -0.01434        0.96706
B         -5.52123       -1.64272       -1.01909
B         -5.80026       -0.11987       -1.00173
B         -5.65755        1.43566       -1.06754
B         -0.29633       -1.83788        1.05659
