45
isomer_1458.log	Energy: -112005.0681713
B          2.61471        1.75203       -0.42410
B          2.59994        3.39382       -0.06087
B          1.18997        4.22118        0.17203
B         -0.26321        3.37796       -0.37100
B          1.15887        0.85169       -0.72211
B         -1.71585        0.86982       -0.81059
B         -1.65705        4.16538        0.30834
B          4.07647        0.88407       -0.34011
B         -1.64307        2.48010       -0.26642
B          4.01023        2.58043        0.09920
B         -0.23477        4.83559        0.44235
B         -3.08586        3.31335        0.33005
B         -3.10586        1.68609       -0.21973
B         -4.56310        0.87311        0.28386
B         -0.27221       -1.68170       -0.84939
B         -1.65287       -2.37538       -0.21744
B         -3.11244       -1.57469       -0.18684
B         -4.56637       -0.74584        0.30019
B         -4.40217       -2.30127        0.56128
B         -3.09899       -3.19059        0.39566
B         -1.67362       -4.04865        0.39121
B         -0.27664       -3.28072       -0.30383
B         -0.25406       -4.72175        0.53876
B          2.58643       -3.30188        0.00667
B          1.17314       -4.11868        0.25616
B          2.60780       -1.66783       -0.38960
B          4.00000       -2.49113        0.15035
B          4.07306       -0.80426       -0.32308
B          1.17617       -2.49084       -0.54534
B          1.18640        2.57750       -0.59647
B         -3.19190        0.15186       -0.60099
B          1.15560       -0.76782       -0.70577
B         -4.39261        2.43281        0.51352
B          5.33238        1.77815        0.61264
B          5.32644        0.14472        0.39518
B          5.32539       -1.68400        0.64756
B          6.49205       -0.72551        1.24127
B          6.49519        0.82713        1.22561
B         -1.71917       -0.77612       -0.79399
B          0.33128       -2.48611       -1.14952
B         -0.26525        1.76825       -0.88419
B         -5.90285        1.72700        0.73338
B         -6.10143        0.01490        0.81547
B         -5.90715       -1.71533        0.83871
B          0.14697        0.24316       -0.49805
