45
isomer_1459.log	Energy: -113580.5747023
B         -2.43926       -1.86203       -0.53874
B         -2.29957       -3.41977       -0.05826
B         -0.84371       -4.19407       -0.00891
B          0.50781       -3.36268       -0.69874
B         -2.53899       -0.11574       -0.70942
B          1.78794       -0.74136       -0.94191
B          1.96283       -3.98631        0.06743
B         -3.92359       -1.04232       -0.22941
B          1.89573       -2.39745       -0.47626
B         -3.70009       -2.66508        0.24081
B          0.55802       -4.67906        0.21479
B          3.24186       -3.08382        0.20796
B          3.33537       -1.34791       -0.28850
B          3.91625       -0.61771        1.35368
B          0.27441        1.69937       -0.68989
B          1.66304        2.54986       -0.17416
B          3.23182        1.67385       -0.32197
B          4.48835        0.13327       -0.22379
B          3.47677        2.63860        1.04535
B          2.86542        3.61597        0.20103
B          1.47340        4.35956       -0.07945
B          0.19838        3.37687       -0.51859
B          0.02822        4.89061       -0.04503
B         -2.65141        3.23486       -0.09430
B         -1.31767        4.16568       -0.13221
B         -2.63406        1.61412       -0.47828
B         -4.01313        2.34606        0.16438
B         -4.01642        0.69979       -0.31217
B         -1.24675        2.46629       -0.57086
B         -0.97360       -2.58126       -0.71282
B          3.21815        0.18385       -1.24912
B         -1.09750        0.74340       -0.74732
B          4.43136       -2.21606        0.73251
B         -4.99320       -1.88345        0.80448
B         -5.23438       -0.22007        0.40768
B         -5.24231        1.50070        0.69203
B         -6.21519        0.52814        1.44061
B         -6.09014       -0.97796        1.51976
B          1.67816        0.88820       -0.69299
B         -1.02135       -0.85718       -0.88601
B          0.43847       -1.69697       -1.06041
B          5.48921       -1.11432        0.88831
B          5.46448        0.35677        1.16896
B          4.16764        1.23774        1.24681
B          2.69923        0.15902        0.54296
