45
isomer_0146.log	Energy: -112863.8726300
B          2.56620        1.81692       -0.45837
B          2.52503        3.44143       -0.04165
B          1.12281        4.23018        0.20969
B         -0.30742        3.42191       -0.33524
B          1.17104        0.95921       -0.77432
B         -1.77184        0.90038       -0.85866
B         -1.68251        4.15663        0.35965
B          3.98588        0.98840       -0.40214
B         -1.68990        2.52103       -0.26010
B          3.89414        2.62759        0.08044
B         -0.26612        4.77478        0.49085
B         -3.10075        3.30793        0.36812
B         -3.14558        1.71672       -0.22089
B         -4.59805        0.86523        0.25866
B         -0.43108       -1.63666       -0.97037
B         -1.75909       -2.38698       -0.33964
B         -3.17734       -1.58045       -0.28801
B         -4.59536       -0.75710        0.22124
B         -4.48253       -2.33794        0.46369
B         -3.11321       -3.21980        0.25282
B         -1.71616       -4.05460        0.22291
B         -0.34856       -3.27335       -0.45317
B         -0.28336       -4.68095        0.33338
B          2.67038       -3.18652       -0.14494
B          1.14803       -4.11555        0.06770
B          2.65603       -1.50581       -0.50506
B          4.01844       -2.30855       -0.00245
B          4.02978       -0.67994       -0.43225
B          1.18786       -2.43155       -0.66338
B          1.16297        2.63449       -0.59086
B         -3.24470        0.15399       -0.64410
B          1.25437       -0.52059       -0.78773
B         -4.46469        2.46393        0.55708
B          5.20061        1.86789        0.55827
B          5.23024        0.23325        0.29268
B          5.27090       -1.51477        0.47770
B          6.36614       -0.57489        1.07405
B          6.36473        0.91535        1.12080
B         -1.79930       -0.75059       -0.88836
B          1.79133       -3.28903        1.12017
B         -0.28716        1.82839       -0.90165
B         -5.84520        1.62847        0.72009
B         -6.01017        0.02157        0.73731
B         -5.83719       -1.58815        0.71149
B          0.34035       -1.08188        0.26453
