45
isomer_1461.log	Energy: -113414.9126919
B          2.49394       -1.71675        0.16972
B          2.39056       -3.33230       -0.33814
B          0.93809       -4.11863       -0.37002
B         -0.39618       -3.30511        0.30927
B          1.17322       -0.76973        0.56455
B         -1.68412       -0.71915        1.08467
B         -1.87825       -4.06394       -0.12793
B          3.91837       -0.97014        0.04399
B         -1.84804       -2.44751        0.57311
B          3.80704       -2.56985       -0.39896
B         -0.49226       -4.70580       -0.41932
B         -3.20576       -3.17895        0.01113
B         -3.21262       -1.55392        0.55271
B         -4.56284       -0.69911        0.03426
B         -0.21766        1.75632        0.92939
B         -1.57861        2.59280        0.21363
B         -3.00780        1.79225        0.09872
B         -4.46010        0.99324       -0.10176
B         -4.22684        2.54119       -0.86555
B         -2.85471        3.37710       -0.46034
B         -1.43411        4.15003       -0.43729
B         -0.10633        3.38855        0.49926
B          0.01657        4.65702       -0.49568
B          2.70045        3.16294        0.02029
B          1.35625        4.05745       -0.13630
B          2.68058        1.57423        0.71400
B          3.98287        2.28438       -0.09086
B          4.02177        0.71066        0.31489
B          1.32389        2.50595        0.67199
B          1.10920       -2.54623        0.35837
B         -3.19666        0.12142        0.65358
B          1.21169        0.78817        1.03081
B         -4.55126       -2.37621       -0.38331
B          5.20818       -1.78466       -0.74211
B          5.34476       -0.19573       -0.09347
B          5.38233        1.46352       -0.42918
B          6.46072        0.60333       -1.04779
B          6.33347       -0.87487       -1.23870
B         -1.54775        0.83700        0.30667
B         -0.25090        0.07753        1.64081
B         -0.32227       -1.68172        0.79903
B         -5.58836       -1.44654       -0.95620
B         -5.65292        0.09500       -1.08472
B         -5.33893        1.61809       -1.28209
B         -0.23869       -0.09132       -0.09513
