45
isomer_1463.log	Energy: -112937.8442262
B          2.64797       -1.48405        0.54238
B          2.65416       -3.08614       -0.00522
B          1.43541       -4.10651        0.06179
B         -0.21184       -3.31571        0.38860
B          1.15337       -0.67912        0.84595
B         -1.64644       -0.66839        0.68200
B         -1.72465       -3.88155       -0.55499
B          4.05117       -0.59118        0.35041
B         -1.64450       -2.28882        0.07912
B          3.95524       -2.13053       -0.26900
B         -0.46040       -4.68168       -0.70640
B         -3.06646       -3.03430       -0.48893
B         -3.12290       -1.50134        0.07420
B         -4.50769       -0.61971       -0.28351
B         -0.31793        1.79008        0.94782
B         -1.69042        2.63478        0.44245
B         -3.13027        1.87075        0.29079
B         -4.52983        1.03636       -0.14166
B         -4.47617        2.70475       -0.46587
B         -3.01987        3.42221       -0.18299
B         -1.59825        4.26438       -0.20446
B         -0.23646        3.45999        0.49732
B         -0.17210        4.80474       -0.32586
B          2.57596        3.40004        0.14125
B          1.22974        4.17877       -0.01418
B          2.58124        1.64653        0.44561
B          3.92052        2.62314       -0.11354
B          4.05336        1.04010        0.38560
B          1.20836        2.51037        0.63183
B          1.28350       -2.45221        0.64726
B         -3.17189        0.14382        0.46525
B          1.09711        0.86416        0.79880
B         -4.49840       -2.26468       -0.73228
B          5.20441       -1.39429       -0.80738
B          5.24458        0.27061       -0.48300
B          5.20662        1.94970       -0.72891
B          6.29331        1.05623       -1.43996
B          6.25869       -0.43255       -1.50069
B         -1.65551        0.93529        0.84410
B          0.26804       -4.99857        0.52042
B         -0.23801       -1.45930        0.50592
B         -5.68300       -1.33759       -1.04072
B         -5.86929        0.23614       -0.94346
B         -5.66981        1.79994       -0.89138
B          0.01930       -2.23467        1.73552
