45
isomer_1464.log	Energy: -113663.6839012
B         -2.54127        1.74182        0.55197
B         -2.47720        3.32185        0.00177
B         -1.11663        4.15947       -0.10215
B          0.30446        3.39456        0.50068
B         -1.14708        0.84400        1.08729
B          1.78699        0.86650        0.91055
B          1.68330        4.17009       -0.28108
B         -3.95596        0.87017        0.21577
B          1.75352        2.56094        0.44349
B         -3.84717        2.50353       -0.25254
B          0.26864        4.75268       -0.36959
B          3.04099        3.31771       -0.32581
B          3.13068        1.72276        0.20500
B          4.48979        0.82888       -0.29604
B          0.32775       -1.74476        0.83453
B          1.77646       -2.56726        0.52635
B          3.16167       -1.72090        0.23977
B          4.58348       -0.85216       -0.05438
B          4.39682       -2.49599       -0.65582
B          3.08869       -3.34660       -0.18342
B          1.72475       -4.18120       -0.21307
B          0.30923       -3.36726        0.44349
B          0.29770       -4.75082       -0.36629
B         -2.47774       -3.33855       -0.08480
B         -1.10256       -4.16768       -0.14649
B         -2.56355       -1.77076        0.56922
B         -3.83274       -2.53373       -0.29711
B         -3.96546       -0.88724        0.22301
B         -1.15479       -2.57152        0.70158
B         -1.16401        2.59586        0.78678
B          3.27096        0.02273        0.58251
B         -2.60644       -0.02371        0.75946
B          4.36276        2.47835       -0.79809
B         -5.07421        1.69316       -0.83644
B         -5.19755       -0.01230       -0.50434
B         -5.08030       -1.70324       -0.85110
B         -6.09020       -0.76240       -1.60145
B         -6.07926        0.75573       -1.60412
B          1.72205       -0.80549        0.70633
B         -1.19252       -0.88220        1.15610
B          0.34294        1.83385        1.09064
B          5.46315        1.55908       -1.30601
B          5.63704        0.00310       -1.26247
B          5.41468       -1.53611       -1.23951
B          0.32811        0.02504        1.09582
