45
isomer_1465.log	Energy: -110435.8933590
B         -2.60120       -1.56928       -0.49320
B         -2.62118       -3.21071       -0.12860
B         -1.22922       -4.06616        0.11111
B          0.24303       -3.25295       -0.42628
B         -1.12619       -0.69879       -0.78560
B          1.74793       -0.77505       -0.86156
B          1.61772       -4.06775        0.25977
B         -4.04548       -0.67190       -0.41628
B          1.64027       -2.38304       -0.31641
B         -4.01543       -2.36886        0.02468
B          0.18163       -4.70898        0.38811
B          3.06335       -3.24473        0.28701
B          3.11859       -1.61870       -0.26399
B          4.58976       -0.83487        0.24528
B          0.35631        1.80506       -0.90869
B          1.74793        2.47128       -0.27129
B          3.19089        1.64131       -0.23369
B          4.62565        0.78371        0.26032
B          4.49177        2.34237        0.51945
B          3.20756        3.25767        0.34744
B          1.79984        4.14434        0.33609
B          0.39067        3.40416       -0.36440
B          0.39354        4.84610        0.47692
B         -2.47271        3.48341       -0.06638
B         -1.04431        4.27172        0.18860
B         -2.52537        1.84977       -0.46142
B         -3.90298        2.70150        0.07180
B         -4.00805        1.01602       -0.40059
B         -1.07675        2.64356       -0.61159
B         -1.18913       -2.42359       -0.65869
B          3.23725       -0.08686       -0.64611
B         -1.09028        0.92033       -0.77055
B          4.38681       -2.39060        0.47545
B         -5.32332       -1.53959        0.53172
B         -5.28344        0.09320        0.31297
B         -5.24655        1.92174        0.56389
B         -6.43490        0.98754        1.15328
B         -6.46932       -0.56474        1.13885
B          1.78442        0.87050       -0.84626
B         -1.46391       -2.05747        1.77339
B          0.27981       -1.64406       -0.94075
B          5.91003       -1.71524        0.70131
B          6.14279       -0.00742        0.78289
B          5.98340        1.72640        0.80389
B         -0.96122       -1.28032       -0.88191
