45
isomer_1468.log	Energy: -113335.8237397
B         -2.74603       -1.65295       -0.63765
B         -2.75269       -3.23221       -0.19694
B         -1.37623       -4.07050       -0.04950
B          0.12334       -3.29971       -0.60493
B         -1.22799       -0.75237       -1.05008
B          1.72378       -0.91024       -1.11225
B          1.36274       -4.02997        0.49312
B         -4.06196       -0.66634       -0.25093
B          1.56466       -2.47338       -0.22238
B         -4.05761       -2.34479        0.11417
B         -0.03039       -4.61007        0.37844
B          2.74807       -3.20201        0.66136
B          3.05429       -1.78979       -0.17994
B          4.50454       -1.00941        0.23410
B          0.48465        1.67972       -0.93670
B          1.94598        2.44252       -0.57456
B          3.29969        1.56111       -0.37391
B          4.65290        0.68197        0.09912
B          4.60860        2.34292        0.52003
B          3.30830        3.17778        0.06435
B          1.97048        4.05662        0.11994
B          0.50001        3.34597       -0.47253
B          0.58452        4.71352        0.33360
B         -2.26780        3.41493        0.00244
B         -0.84159        4.18545        0.11277
B         -2.42773        1.81661       -0.32841
B         -3.70791        2.70277        0.30501
B         -3.92150        1.07926       -0.15753
B         -0.96426        2.53730       -0.57881
B         -1.29201       -2.43620       -0.69410
B          3.25561       -0.13965       -0.61799
B         -0.95807        0.82355       -0.83776
B          4.15735       -2.47929        1.00886
B         -5.27799       -1.43377        0.71006
B         -5.22607        0.26390        0.50025
B         -5.00793        1.95134        0.87569
B         -6.09444        1.06235        1.57644
B         -6.23161       -0.46467        1.49530
B          1.82224        0.74529       -0.92427
B         -2.58324        0.12497       -0.63900
B          0.60050       -1.93606       -1.60470
B          5.36677       -1.64866        1.41621
B          5.71312       -0.14126        1.21732
B          5.67572        1.40380        1.09057
B          0.02716       -1.39035       -0.28431
