45
isomer_1469.log	Energy: -113326.0489494
B         -2.50937        1.67772        0.49488
B         -2.50194        3.37301       -0.08042
B         -1.14684        4.12584       -0.26584
B          0.29440        3.43307        0.38261
B         -1.07093        0.91992        0.91390
B          1.69807        0.91935        0.88945
B          1.67255        4.13882       -0.37829
B         -3.90945        0.97573        0.28077
B          1.73059        2.58433        0.45375
B         -3.81594        2.57052       -0.14510
B          0.26204        4.70563       -0.56424
B          3.07539        3.32150       -0.28078
B          3.07963        1.73405        0.20282
B          4.50885        0.83322       -0.06303
B          0.31959       -1.72784        1.41779
B          1.61251       -2.35463        0.20095
B          3.09028       -1.62894        0.30970
B          4.52391       -0.82656        0.16211
B          4.35721       -2.40385       -0.54514
B          2.96214       -3.23030       -0.26375
B          1.62365       -4.04559       -0.30100
B          0.16094       -3.19481        0.44707
B          0.23460       -4.56848       -0.51747
B         -2.48964       -3.13653       -0.14847
B         -1.15386       -3.94938       -0.40138
B         -2.50817       -1.59884        0.58855
B         -3.85560       -2.29120       -0.20865
B         -3.87149       -0.72320        0.26376
B         -1.10204       -2.16496       -0.60277
B         -1.14320        2.55337        0.58289
B          3.15492        0.05669        0.67038
B         -1.03658       -0.68945        0.82307
B          4.41846        2.49957       -0.58304
B         -5.21070        1.76436       -0.53688
B         -5.23504        0.12877       -0.13265
B         -5.20695       -1.51748       -0.55497
B         -6.30527       -0.61567       -1.14639
B         -6.31136        0.88121       -1.13001
B          1.51772       -0.70476        0.77826
B         -1.20651       -2.46159        1.14891
B          0.31688        1.81968        1.02539
B          5.58569        1.56395       -0.96769
B          5.74517        0.02584       -0.93531
B          5.45882       -1.48225       -1.00259
B          0.18689       -1.28983       -0.28112
