45
isomer_0147.log	Energy: -113441.9634103
B          2.47372       -1.74133        0.39435
B          2.65920       -3.19319       -0.79824
B          1.38132       -4.10268       -0.81378
B          0.07411       -3.24189        0.39212
B          1.28404       -0.63323        1.02411
B         -1.68457       -0.78775        1.00733
B         -1.38362       -3.97863       -0.24505
B          3.68567       -0.64680       -0.00469
B         -1.55456       -2.48712        0.56626
B          3.73710       -2.13602       -0.65221
B         -0.05370       -4.49862       -0.66507
B         -2.83191       -3.27068       -0.16914
B         -3.02682       -1.74218        0.31812
B         -4.41324       -0.90497       -0.21224
B         -0.39840        1.88229        0.97256
B         -1.84580        2.55122        0.45644
B         -3.21396        1.68084        0.16604
B         -4.64470        0.73041        0.04604
B         -4.49681        2.36422       -0.69133
B         -3.19106        3.24759       -0.35248
B         -1.83054        4.13140       -0.42490
B         -0.43855        3.42689        0.33720
B         -0.45094        4.75073       -0.56467
B          2.37654        3.44966       -0.11013
B          0.98285        4.21540       -0.28058
B          2.45275        1.82139        0.46997
B          3.80016        2.68920       -0.15602
B          3.73241        1.01665       -0.00984
B          1.09056        2.68555        0.57322
B          1.81804       -3.42134        0.58969
B         -3.25658       -0.02614        0.65541
B          1.14788        0.95850        1.03549
B         -4.26761       -2.56118       -0.59690
B          5.16378       -1.31777       -0.68438
B          5.17830        0.23516       -0.07994
B          5.13027        1.93336       -0.50799
B          6.24567        1.00731       -1.06400
B          6.36922       -0.47454       -1.00389
B         -1.77633        0.86296        0.73017
B          1.16849       -2.28530        1.41950
B         -0.27854       -1.65406        1.30396
B         -5.44800       -1.75229       -1.08423
B         -5.69617       -0.20936       -1.10627
B         -5.51957        1.33116       -1.14776
B         -0.25009        0.09520        0.96774
