45
isomer_1470.log	Energy: -113675.8859038
B         -2.56330        1.73053        0.53018
B         -2.51369        3.30387       -0.03741
B         -1.15663        4.14881       -0.10966
B          0.26924        3.40271        0.53832
B         -1.17027        0.85167        1.06763
B          1.71792        0.84318        0.78737
B          1.64238        4.16989       -0.25806
B         -3.98422        0.84538        0.22521
B          1.72467        2.55122        0.43113
B         -3.86968        2.48500       -0.27601
B          0.22001        4.74768       -0.35369
B          3.00900        3.34073       -0.27779
B          3.12923        1.73332        0.22118
B          4.54704        0.89395       -0.14472
B          0.36899       -1.82511        1.11684
B          1.80190       -2.53247        0.48858
B          3.17347       -1.68082        0.26043
B          4.53166       -0.79783       -0.23806
B          4.40664       -2.44459       -0.74945
B          3.09179       -3.28074       -0.26607
B          1.74800       -4.14435       -0.24618
B          0.35096       -3.38455        0.51379
B          0.34151       -4.74579       -0.35225
B         -2.42762       -3.33476       -0.03940
B         -1.04769       -4.15715       -0.12295
B         -2.50893       -1.75960        0.48860
B         -3.80978       -2.53720       -0.29233
B         -3.95647       -0.91056        0.21572
B         -1.11926       -2.58982        0.76519
B         -1.18586        2.57781        0.78820
B          3.29365        0.01581        0.60945
B         -1.12964       -0.84800        1.04177
B          4.32656        2.49966       -0.76992
B         -5.10464        1.65168       -0.84498
B         -5.19564       -0.04435       -0.52249
B         -5.06055       -1.73866       -0.86451
B         -6.08435       -0.81390       -1.61267
B         -6.10501        0.70672       -1.60526
B          1.78664       -0.83055        0.91156
B         -2.60978       -0.01609        0.74621
B          0.31307        1.83042        1.08733
B          5.37305        1.56948       -1.33785
B          5.61982        0.03327       -1.30460
B          5.47295       -1.51871       -1.30170
B          0.34286        0.00281        1.09334
