45
isomer_1471.log	Energy: -113446.0675839
B         -2.51593        1.68885        0.47424
B         -2.55339        3.38763        0.02647
B         -1.19015        4.19791       -0.12085
B          0.27549        3.41652        0.41091
B         -1.21099        0.88214        0.89959
B          1.64237        0.81570        0.89873
B          1.66128        4.15940       -0.35833
B         -3.84292        0.86815        0.28311
B          1.67866        2.50412        0.31280
B         -3.82611        2.49641       -0.09721
B          0.25410        4.75120       -0.45666
B          3.01033        3.25972       -0.34364
B          3.07561        1.70954        0.21067
B          4.44289        0.81939       -0.23288
B          0.28976       -1.79299        0.90522
B          1.68815       -2.51038        0.31134
B          3.08336       -1.69260        0.23880
B          4.43382       -0.81459       -0.20173
B          4.43955       -2.47869       -0.59111
B          3.04033       -3.28134       -0.29041
B          1.67430       -4.18674       -0.32144
B          0.28046       -3.41842        0.41081
B          0.26207       -4.76314       -0.44390
B         -2.53411       -3.39831       -0.01420
B         -1.18693       -4.21136       -0.12625
B         -2.50862       -1.69928        0.46414
B         -3.81714       -2.49897       -0.18706
B         -3.85553       -0.90166        0.26284
B         -1.16838       -2.64222        0.62183
B         -1.17030        2.63646        0.64009
B          3.17760        0.03044        0.56974
B         -1.23602       -0.90639        0.88467
B          4.43335        2.48806       -0.62167
B         -5.10217        1.67224       -0.62693
B         -5.04550        0.00912       -0.39746
B         -5.11348       -1.64798       -0.67222
B         -6.16513       -0.73166       -1.32408
B         -6.15754        0.77265       -1.31282
B          1.65893       -0.81775        0.85670
B         -1.81058       -0.01887       -0.36653
B          0.29807        1.78385        0.95404
B          5.60766        1.59432       -0.96910
B          5.78336        0.01705       -0.96293
B          5.60243       -1.54642       -0.96401
B          0.21700       -0.00109        1.36670
