45
isomer_1473.log	Energy: -111185.0031635
B         -2.60793        1.70683        0.37646
B         -2.59578        3.34359       -0.00886
B         -1.18706        4.17046       -0.25091
B          0.26694        3.33746        0.30551
B         -1.15080        0.81341        0.68866
B          1.72375        0.83830        0.78097
B          1.66025        4.11834       -0.38242
B         -4.06790        0.83499        0.30212
B          1.64867        2.44094        0.21501
B         -4.00428        2.52539       -0.15994
B          0.23689        4.78393       -0.52747
B          3.09072        3.26886       -0.39060
B          3.11304        1.64921        0.18112
B          4.57256        0.83233       -0.30939
B          0.28495       -1.71525        0.85215
B          1.66784       -2.41472        0.23157
B          3.12592       -1.61170        0.19224
B          4.57896       -0.78669       -0.30387
B          4.41812       -2.34581       -0.54417
B          3.11641       -3.23534       -0.36842
B          1.69268       -4.09601       -0.35441
B          0.29323       -3.32148        0.32822
B          0.27463       -4.77379       -0.49487
B         -2.56935       -3.35237        0.01397
B         -1.15413       -4.16972       -0.22247
B         -2.59442       -1.71317        0.38812
B         -3.98425       -2.54637       -0.14264
B         -4.06123       -0.85340        0.30788
B         -1.16144       -2.53123        0.55699
B         -1.18146        2.53732        0.53970
B          3.20147        0.12043        0.58317
B         -1.14440       -0.80616        0.69419
B          4.39942        2.38846       -0.56032
B         -5.32415        1.71370       -0.66439
B         -5.31539        0.08336       -0.42489
B         -5.31048       -1.74859       -0.65258
B         -6.47811       -0.80045       -1.26082
B         -6.48424        0.75225       -1.26611
B          1.73025       -0.80771        0.78658
B         -0.53441       -1.49320        0.94322
B          0.27133        1.73482        0.84038
B          5.91132        1.68267       -0.76849
B          6.11330       -0.03000       -0.82719
B          5.92237       -1.76075       -0.82735
B         -0.40378        1.23685        1.60435
