45
isomer_1474.log	Energy: -113431.5445643
B         -2.75017       -1.56637       -0.90803
B         -2.60925       -3.07094       -0.02101
B         -1.23693       -3.89186        0.19789
B          0.20546       -3.23833       -0.38575
B         -1.04295       -0.71450       -0.99463
B          1.76621       -0.82212       -0.85183
B          1.54312       -4.05174        0.37707
B         -4.37345       -0.97779       -0.32425
B          1.68886       -2.46831       -0.38371
B         -3.87120       -2.38744        0.45515
B          0.10530       -4.54975        0.51921
B          2.97672       -3.30506        0.31665
B          3.17460       -1.78701       -0.22431
B          4.60877       -0.96865        0.15581
B          0.51164        1.69991       -0.92536
B          1.94985        2.41659       -0.40136
B          3.37648        1.60838       -0.28462
B          4.77995        0.66664       -0.06493
B          4.65967        2.27944        0.58669
B          3.31694        3.14668        0.25342
B          1.94941        4.02767        0.36458
B          0.55352        3.34194       -0.35494
B          0.56812        4.63544        0.56048
B         -2.28424        3.32084        0.05086
B         -0.87605        4.08631        0.26524
B         -2.40093        1.75940       -0.55817
B         -3.66716        2.49279        0.19156
B         -3.92259        0.88108       -0.41949
B         -0.93896        2.58262       -0.53771
B         -1.26682       -2.36145       -0.67390
B          3.36192       -0.11302       -0.63277
B         -0.91470        0.88900       -1.04903
B          4.40956       -2.59397        0.67846
B         -5.01760       -1.57774        1.13221
B         -4.87621        0.12209        0.83089
B         -4.85964        1.79481        0.89430
B         -5.86329        0.98126        1.77192
B         -5.92916       -0.52619        1.86986
B          1.84424        0.76365       -0.77921
B         -3.78843       -0.43293       -1.64698
B          0.32367       -1.61715       -0.95079
B          5.61707       -1.76552        1.10252
B          5.88792       -0.23686        1.06173
B          5.72949        1.29739        1.05874
B         -2.41873        0.23077       -1.32245
