45
isomer_1481.log	Energy: -113636.9764676
B          2.67655       -1.52929        0.77038
B          2.87730       -3.17276        0.42583
B          1.56569       -3.83826       -0.17611
B         -0.02989       -3.15368        0.18680
B          1.14040       -0.81961        0.99049
B         -1.75399       -1.10818        1.26457
B         -1.03016       -3.45926       -1.15168
B          4.05229       -0.58242        0.58037
B         -1.16679       -1.87455       -0.33726
B          4.18124       -2.26328        0.30409
B          0.28253       -4.18936       -0.96807
B         -2.43949       -2.70999       -1.20561
B         -2.86971       -1.77005        0.05115
B         -4.49554       -1.07962       -0.07873
B         -0.57434        1.32325       -0.11989
B         -1.99475        2.19050        0.42976
B         -3.36849        1.31457        0.66753
B         -4.76689        0.36531        0.79433
B         -4.81203        2.06095        0.24668
B         -3.48356        2.97459        0.23015
B         -2.19941        3.80776       -0.09772
B         -0.76697        2.90123       -0.59180
B         -0.81336        4.46994       -0.33932
B          2.12009        3.40283       -0.46261
B          0.65164        4.02156       -0.55850
B          2.30397        1.73366       -0.00575
B          3.61456        2.71130       -0.40772
B          3.84632        1.20003        0.34500
B          0.81129        2.44021       -0.05252
B          1.37415       -2.53253        0.92592
B         -3.32895       -0.43394        1.05618
B          0.96189        0.77964        0.30994
B         -3.95535       -2.32921       -1.18255
B          5.40661       -1.34457       -0.16414
B          5.25985        0.37586       -0.06639
B          5.03986        2.01099       -0.60490
B          6.31757        1.14158       -0.97471
B          6.48184       -0.34328       -0.78328
B         -1.85036        0.55770        0.79155
B          2.53475        0.15474        0.76257
B         -0.25756       -1.78533        1.21839
B         -5.40422       -1.80029       -1.18292
B         -5.91839       -0.46686       -0.70891
B         -5.77427        1.00407       -0.26399
B         -0.44593       -0.35597        0.13337
