45
isomer_1482.log	Energy: -113458.7570257
B          2.56643       -1.60929        0.43733
B          2.52218       -3.31444       -0.04825
B          1.22523       -4.12669        0.19125
B         -0.23336       -3.33231        0.94523
B          1.21634       -0.74063        0.83344
B         -1.58232       -0.75345        0.51854
B         -1.55597       -4.14102       -0.00517
B          3.89115       -0.85351        0.09975
B         -1.40535       -2.41337        0.04731
B          3.80280       -2.45324       -0.31416
B         -0.18154       -4.71795        0.08133
B         -2.87190       -3.28593       -0.30271
B         -2.99982       -1.71908        0.10912
B         -4.46074       -0.86726       -0.11171
B         -0.32574        1.81868        1.21132
B         -1.70887        2.56963        0.47621
B         -3.08744        1.74703        0.22451
B         -4.35944        0.78892       -0.39904
B         -4.33324        2.46594       -0.76556
B         -3.01457        3.32293       -0.26817
B         -1.64633        4.15906       -0.19853
B         -0.27325        3.43662        0.65426
B         -0.22266        4.70807       -0.31414
B          2.53869        3.38245        0.05588
B          1.19020        4.14678       -0.01869
B          2.54889        1.66068        0.63370
B          3.79888        2.51419       -0.20097
B          3.90585        0.91265        0.15235
B          1.20197        2.57700        0.74786
B          1.08452       -2.40939        0.26211
B         -3.15107        0.00068        0.50120
B          1.20200        0.93658        1.06863
B         -4.20599       -2.50139       -0.76686
B          5.11618       -1.60942       -0.87240
B          5.15126        0.03542       -0.45101
B          5.09342        1.68997       -0.77156
B          6.12669        0.79701       -1.52140
B          6.13059       -0.69963       -1.55792
B         -1.74878        0.92435        0.98695
B         -0.24798        0.00355        1.24628
B         -0.28973       -1.73482        1.46052
B         -5.31019       -1.56174       -1.26876
B         -5.57083       -0.03924       -1.27531
B         -5.42636        1.53781       -1.28105
B         -0.09981       -1.25220       -0.23171
