45
isomer_1484.log	Energy: -112230.8037791
B          2.59807        1.76266       -0.44530
B          2.57237        3.40116       -0.06987
B          1.15914        4.22834        0.16241
B         -0.29123        3.39010       -0.37934
B          1.15632        0.88612       -0.75933
B         -1.75725        0.85961       -0.82991
B         -1.68753        4.16199        0.30151
B          4.05043        0.88380       -0.35734
B         -1.68325        2.48333       -0.27800
B          3.97506        2.57371        0.08694
B         -0.26315        4.82088        0.43464
B         -3.10959        3.30970        0.32307
B         -3.13985        1.68412       -0.23155
B         -4.59142        0.86192        0.26645
B         -0.32360       -1.69441       -0.89764
B         -1.71261       -2.42889       -0.26237
B         -3.15796       -1.61342       -0.22235
B         -4.59770       -0.77227        0.26938
B         -4.45517       -2.34087        0.52226
B         -3.14565       -3.23993        0.34262
B         -1.74699       -4.11279        0.33234
B         -0.33569       -3.37629       -0.34150
B         -0.34348       -4.80320        0.48135
B          2.56294       -3.36696       -0.01808
B          1.08837       -4.23974        0.22074
B          2.63398       -1.67316       -0.40974
B          3.98939       -2.50876        0.12402
B          4.05539       -0.82407       -0.33963
B          1.10370       -2.65003       -0.53878
B          1.16509        2.60076       -0.60868
B         -3.23311        0.12903       -0.61966
B          1.12887       -0.74032       -0.73155
B         -4.43405        2.43156        0.51234
B          5.28510        1.77132        0.60050
B          5.28649        0.13361        0.38081
B          5.29419       -1.68265        0.62935
B          6.43204       -0.72318        1.22298
B          6.43958        0.81878        1.21600
B         -1.76711       -0.81051       -0.82153
B          1.36919       -1.97137       -0.79481
B         -0.29997        1.78507       -0.89663
B         -5.90736        1.69363        0.71933
B         -6.10159        0.00102        0.78383
B         -5.92038       -1.70025        0.79172
B          0.66001        0.60087        0.12902
