45
isomer_1486.log	Energy: -113521.6276193
B         -2.12442       -1.38991        0.58971
B         -2.23438       -3.11769        0.48035
B         -0.86454       -3.99658        0.34653
B          0.42824       -3.31896       -0.48824
B         -1.00624       -0.80568       -0.70537
B          1.76234       -0.74033       -0.78618
B          1.91581       -4.05518        0.13526
B         -3.86823       -0.98757       -0.40724
B          1.87029       -2.42067       -0.53190
B         -3.58878       -2.36705        0.62645
B          0.51920       -4.61795        0.44129
B          3.25491       -3.22174        0.01905
B          3.31835       -1.62189       -0.44608
B          4.71934       -0.73396       -0.18035
B          0.35025        1.75250       -0.97266
B          1.69596        2.51798       -0.21966
B          3.10781        1.74846       -0.11504
B          4.55136        0.90499        0.19068
B          4.38646        2.50568        0.79471
B          2.98656        3.30680        0.46855
B          1.58789        4.10940        0.45449
B          0.26847        3.40392       -0.43602
B          0.14960        4.69134        0.48512
B         -2.57622        3.35907       -0.19295
B         -1.22617        4.14401        0.05550
B         -2.52816        1.72750       -0.57532
B         -3.93989        2.50096       -0.03506
B         -3.96253        0.83218       -0.35171
B         -1.16149        2.58008       -0.80639
B         -1.09583       -2.50627       -0.67313
B          3.28788        0.09889       -0.66211
B         -1.02421        0.88261       -0.83321
B          4.59289       -2.37822        0.40859
B         -5.04110       -1.69951        0.77488
B         -5.25099       -0.11010        0.16152
B         -5.14044        1.61109        0.53780
B         -6.14863        0.63123        1.27472
B         -6.20940       -0.85702        1.26925
B          1.74935        0.88654       -0.82578
B         -2.60335       -1.89921       -1.00374
B          0.44659       -1.64303       -0.91679
B          5.65303       -1.42251        0.93493
B          5.84237        0.09812        0.99461
B          5.59324        1.63853        1.13249
B         -2.44321       -0.02084       -0.41154
