45
isomer_1488.log	Energy: -113431.4352221
B         -2.60258        1.63335        0.67116
B         -2.53442        3.24674        0.06149
B         -1.17380        4.12209       -0.04573
B          0.30861        3.38265        0.50665
B         -1.12115        0.85138        1.00142
B          1.60214        0.75147        0.15920
B          1.64284        4.15785       -0.34323
B         -4.01935        0.78900        0.41589
B          1.69069        2.50938        0.20897
B         -3.88997        2.35775       -0.13145
B          0.22350        4.71831       -0.36430
B          3.05112        3.31126       -0.35700
B          3.10681        1.72251        0.07219
B          4.53694        0.81934       -0.05719
B          0.26415       -1.63307        0.63568
B          1.68370       -2.49026        0.54741
B          3.13229       -1.76252        0.45760
B          4.39983       -0.83827       -0.24240
B          4.39708       -2.53285       -0.46871
B          3.00607       -3.30264       -0.08196
B          1.62788       -4.19033       -0.08719
B          0.24733       -3.27313        0.24541
B          0.21653       -4.77126       -0.25213
B         -2.58285       -3.24762       -0.11620
B         -1.20737       -4.09067       -0.19352
B         -2.65781       -1.56004        0.32562
B         -3.98022       -2.40713       -0.29988
B         -4.09739       -0.89013        0.41200
B         -1.26500       -2.43755        0.28968
B         -1.21291        2.56729        0.66179
B          3.16339        0.01708        0.55697
B         -1.18887       -0.68268        0.54636
B          4.40685        2.45951       -0.73716
B         -5.15566        1.63824       -0.66953
B         -5.31631       -0.00989       -0.32132
B         -5.29493       -1.68379       -0.69095
B         -6.40873       -0.73730       -1.26973
B         -6.29772        0.74708       -1.32968
B          1.70088       -0.76316        1.11953
B          0.31878        0.06798        1.59057
B          0.35559        1.74003        0.92776
B          5.46422        1.47239       -1.16451
B          5.69369       -0.09031       -1.06441
B          5.54314       -1.65123       -0.96642
B          0.22299       -0.03685       -0.15875
