45
isomer_1489.log	Energy: -113112.7641184
B         -2.69193       -1.41854       -0.45947
B         -2.63198       -2.99219        0.13813
B         -1.37345       -3.93211       -0.23655
B          0.21887       -3.24205       -0.92913
B         -1.30425       -0.59089       -0.87346
B          1.86204       -0.90174       -1.14694
B          1.56294       -3.87818        0.74025
B         -4.03663       -0.56786       -0.06225
B          1.71481       -2.58270       -0.29602
B         -3.95155       -2.14529        0.38058
B          0.36950       -4.64837        0.17790
B          2.75114       -2.97729        0.96071
B          2.98524       -1.53931        0.14794
B          4.28643       -0.61531        0.64815
B          0.32732        1.61680       -0.90483
B          1.74498        2.44673       -0.71920
B          3.20139        1.75722       -0.44025
B          4.60835        0.89914        0.04835
B          4.39890        2.63155        0.38018
B          3.10385        3.36605       -0.15024
B          1.75059        4.21711       -0.16293
B          0.34184        3.33856       -0.53249
B          0.37091        4.82834        0.01071
B         -2.43272        3.40046        0.11816
B         -1.04868        4.16856       -0.00780
B         -2.60387        1.75159       -0.53816
B         -3.77348        2.67651        0.33143
B         -4.00710        1.11647       -0.12815
B         -1.15308        2.51731       -0.55843
B         -1.27927       -2.21364       -0.51490
B          3.25420        0.01117       -0.54101
B         -1.21949        0.93232       -0.97701
B          4.11407       -2.12387        1.36425
B         -5.27369       -1.32119        0.85464
B         -5.36373        0.31269        0.34179
B         -5.15662        1.94745        0.83083
B         -6.22016        1.10634        1.53541
B         -6.26753       -0.37435        1.54941
B          1.72447        0.76473       -0.89166
B         -0.50820       -4.89297       -0.92583
B          0.11672       -1.42909       -1.03021
B          5.25810       -1.24117        1.75730
B          5.56506        0.27300        1.43141
B          5.43648        1.75369        1.11556
B          1.22920       -2.20568       -1.83617
