45
isomer_0149.log	Energy: -113366.3731352
B          2.53679       -1.69237        0.65512
B          2.42400       -3.27403       -0.11610
B          0.99560       -4.15114       -0.15999
B         -0.44246       -3.41877        0.48004
B          1.04902       -0.89306        0.73955
B         -1.74872       -0.79519        0.83576
B         -1.84406       -4.12007       -0.20569
B          3.96722       -0.81528        0.33677
B         -1.85798       -2.47097        0.41321
B          3.78650       -2.42732       -0.21075
B         -0.46464       -4.73108       -0.41013
B         -3.21559       -3.20550       -0.23992
B         -3.21824       -1.62155        0.29323
B         -4.56177       -0.72755       -0.14255
B         -0.33312        1.73549        0.91353
B         -1.70381        2.53051        0.30718
B         -3.12967        1.75963        0.22207
B         -4.52089        0.94601       -0.20188
B         -4.47516        2.58360       -0.60553
B         -3.04312        3.31422       -0.33375
B         -1.64791        4.16648       -0.31617
B         -0.27996        3.41298        0.40666
B         -0.24632        4.75206       -0.41317
B          2.58861        3.36556        0.06105
B          1.17137        4.13409       -0.10218
B          2.54739        1.67656        0.59231
B          3.93494        2.54288       -0.07005
B          4.01094        0.89910        0.36118
B          1.18082        2.61793        0.59786
B          1.02354       -2.69822        0.73660
B         -3.21103        0.06884        0.55993
B          1.06264        0.93192        0.79085
B         -4.59024       -2.36043       -0.53436
B          5.12156       -1.61305       -0.68869
B          5.16618        0.01268       -0.37885
B          5.24341        1.70171       -0.61415
B          6.20460        0.79513       -1.35979
B          6.13393       -0.70707       -1.43840
B         -1.70020        0.86575        0.85275
B          1.36095       -1.87238       -0.69747
B         -0.37467       -1.71092        0.88414
B         -5.75174       -1.40596       -0.90797
B         -5.89594        0.15748       -0.89830
B         -5.69630        1.69860       -0.94847
B          2.44351        0.04268        0.95450
