45
isomer_1490.log	Energy: -113293.5367952
B         -2.43772       -1.51094       -0.31437
B         -2.84086       -3.26997       -0.35486
B         -1.31163       -3.96587        0.18592
B          0.17973       -3.29912       -0.38946
B         -2.19201        0.00858       -0.84425
B          1.66962       -0.79610       -0.77545
B          1.48499       -4.05199        0.44519
B         -3.86491       -0.64134       -0.15898
B          1.60658       -2.44389       -0.25689
B         -3.99500       -2.31191        0.04113
B          0.07395       -4.58839        0.56631
B          2.92040       -3.29054        0.38108
B          3.09799       -1.75321       -0.16027
B          4.59411       -0.95712       -0.01192
B          0.45066        1.83141       -1.02014
B          1.91059        2.51245       -0.44421
B          3.26290        1.61252       -0.24938
B          4.68558        0.69721       -0.11429
B          4.62120        2.34879        0.51113
B          3.29484        3.20481        0.19956
B          1.94204        4.08791        0.37016
B          0.52063        3.42683       -0.37450
B          0.56942        4.67410        0.61557
B         -2.28353        3.40449        0.14413
B         -0.88265        4.14881        0.33177
B         -2.40381        1.78180       -0.53140
B         -3.65848        2.65632        0.25657
B         -3.75503        1.04447       -0.15913
B         -0.94293        2.67489       -0.52051
B         -1.24198       -2.55572       -0.93484
B          3.23461       -0.05489       -0.63771
B         -1.08285        1.07642       -1.13065
B          4.33149       -2.55378        0.65851
B         -5.22107       -1.35156        0.59355
B         -5.14185        0.28771        0.22295
B         -5.04523        1.95989        0.67449
B         -6.16439        1.12987        1.24256
B         -6.24397       -0.37261        1.23370
B          1.74763        0.81793       -0.77854
B         -1.95277       -2.57867        0.83271
B          0.35190       -1.70957       -1.06705
B          5.54852       -1.69729        1.04339
B          5.82704       -0.18867        0.94860
B          5.68952        1.36476        0.94298
B         -0.95326       -0.80883       -1.21312
