45
isomer_1491.log	Energy: -112147.3328774
B          2.63103       -1.61570        0.38900
B          2.63155       -3.24939       -0.00935
B          1.22919       -4.08574       -0.25576
B         -0.23061       -3.26905        0.30960
B          1.16721       -0.73669        0.71064
B         -1.70689       -0.78570        0.80731
B         -1.61866       -4.05574       -0.38233
B          4.08374       -0.73144        0.31932
B         -1.61972       -2.38312        0.22845
B          4.03310       -2.41858       -0.15613
B         -0.19018       -4.70855       -0.53495
B         -3.05600       -3.21789       -0.38146
B         -3.09054       -1.60308        0.20320
B         -4.55745       -0.79423       -0.27845
B         -0.28877        1.77883        0.89658
B         -1.67832        2.47194        0.28380
B         -3.12989        1.65741        0.24038
B         -4.57699        0.82459       -0.25999
B         -4.42922        2.38683       -0.48810
B         -3.13449        3.28550       -0.30732
B         -1.71779        4.15759       -0.28869
B         -0.31096        3.38906        0.38551
B         -0.30552        4.84798       -0.42600
B          2.55074        3.44574        0.06698
B          1.12855        4.25341       -0.16069
B          2.58976        1.80387        0.42799
B          3.97190        2.65255       -0.09832
B          4.06337        0.95674        0.33856
B          1.15046        2.60887        0.60565
B          1.21163       -2.45905        0.54787
B         -3.19071       -0.07833        0.61758
B          1.14766        0.88268        0.72910
B         -4.37209       -2.34685       -0.54207
B          5.34549       -1.59218       -0.65617
B          5.32389        0.03608       -0.40366
B          5.30371        1.86968       -0.61670
B          6.47801        0.93596       -1.23434
B          6.49674       -0.61655       -1.25204
B         -1.72675        0.86010        0.82607
B          1.38105       -1.88169        1.38307
B         -0.24713       -1.67082        0.85725
B         -5.89002       -1.65175       -0.74220
B         -6.10600        0.05963       -0.78690
B         -5.92914        1.79183       -0.77355
B         -0.81494       -1.00472       -0.13874
