45
isomer_1493.log	Energy: -112618.9598703
B          2.70635       -1.48995        0.38528
B          2.72222       -3.16840       -0.04475
B          1.36992       -4.03827       -0.31004
B         -0.13375       -3.26712        0.23387
B          1.31440       -0.52895        0.71395
B         -1.73649       -0.63402        0.78526
B         -1.53559       -4.07067       -0.45377
B          4.01527       -0.66295        0.30963
B         -1.70008       -2.36952        0.14501
B          3.99021       -2.30214       -0.15587
B         -0.03950       -4.62537       -0.57963
B         -3.02246       -3.20994       -0.43464
B         -3.11780       -1.57879        0.15072
B         -4.58316       -0.74574       -0.29041
B         -0.25840        1.79728        0.90432
B         -1.67458        2.52242        0.29025
B         -3.11815        1.72209        0.23998
B         -4.57786        0.89033       -0.25535
B         -4.45605        2.47628       -0.50759
B         -3.06277        3.32883       -0.29297
B         -1.65725        4.17038       -0.27466
B         -0.27277        3.40470        0.38663
B         -0.26425        4.75172       -0.38562
B          2.54759        3.40345        0.05886
B          1.13457        4.19523       -0.14399
B          2.60362        1.78528        0.43782
B          3.88674        2.59796       -0.08426
B          3.98169        1.01345        0.33124
B          1.19983        2.59753        0.60487
B          1.36735       -2.39239        0.52358
B         -3.19971        0.02183        0.59940
B          1.22559        0.89500        0.74360
B         -4.46687       -2.35213       -0.61193
B          5.24818       -1.47469       -0.64718
B          5.19740        0.13532       -0.38369
B          5.17054        1.82414       -0.58651
B          6.24797        0.97779       -1.19220
B          6.32355       -0.51890       -1.23605
B         -1.73096        0.94887        0.82422
B          0.28298       -3.34002        1.46848
B         -0.14576       -1.55017        1.01902
B         -5.79736       -1.50095       -0.73403
B         -5.96911        0.11083       -0.74854
B         -5.79523        1.66579       -0.72480
B         -0.22006       -1.41542       -0.07748
