45
isomer_1494.log	Energy: -112434.8276866
B          2.53025        1.85686       -0.43853
B          2.45850        3.49420       -0.06259
B          1.02128        4.28454        0.17008
B         -0.40191        3.41658       -0.37759
B          1.10669        0.93363       -0.75165
B         -1.78446        0.87737       -0.83213
B         -1.81400        4.15788        0.30457
B          4.02762        1.02569       -0.34542
B         -1.76151        2.48468       -0.27870
B          3.88521        2.71089        0.09699
B         -0.41205        4.84940        0.43998
B         -3.21828        3.26739        0.32524
B         -3.19293        1.64540       -0.23126
B         -4.62255        0.78171        0.27157
B         -0.23404       -1.65391       -0.90610
B         -1.59634       -2.39432       -0.24132
B         -3.08459       -1.62954       -0.20519
B         -4.55947       -0.83591        0.28445
B         -4.34377       -2.39704        0.55798
B         -2.98584       -3.25307        0.38612
B         -1.51600       -4.08641        0.39350
B         -0.18615       -3.27644       -0.34641
B         -0.09241       -4.70633        0.52099
B          2.75881       -3.26424       -0.01191
B          1.32449       -4.09862        0.24115
B          2.70778       -1.56001       -0.41789
B          4.10745       -2.35987        0.13706
B          4.10180       -0.66199       -0.33382
B          1.24498       -2.33614       -0.57804
B          1.07722        2.65278       -0.60813
B         -3.22737        0.10797       -0.61940
B          1.18401       -0.63691       -0.74437
B         -4.51308        2.35352        0.51395
B          5.23286        1.95076        0.61813
B          5.30069        0.31123        0.39766
B          5.37461       -1.50011        0.64396
B          6.47808       -0.50400        1.24741
B          6.42709        1.03429        1.23653
B         -1.73282       -0.75642       -0.82310
B          1.59317       -3.01288       -0.69367
B         -0.35535        1.81080       -0.90507
B         -5.96883        1.57111        0.72683
B         -6.09778       -0.12008        0.80277
B         -5.83995       -1.81852        0.82905
B         -0.40112       -0.71594       -0.39371
