45
isomer_1495.log	Energy: -112669.5463184
B          2.63467       -1.65343        0.41622
B          2.62308       -3.29056        0.03247
B          1.21475       -4.11744       -0.21181
B         -0.24031       -3.28365        0.34067
B          1.17701       -0.75947        0.72441
B         -1.69773       -0.78379        0.81055
B         -1.63226       -4.06498       -0.34950
B          4.09494       -0.78190        0.34418
B         -1.62169       -2.38700        0.24632
B          4.03204       -2.47274       -0.11638
B         -0.20870       -4.73094       -0.49084
B         -3.06258       -3.21527       -0.36159
B         -3.08586       -1.59506        0.20850
B         -4.54419       -0.77843       -0.28594
B         -0.25866        1.76959        0.88234
B         -1.64010        2.46868        0.25811
B         -3.09822        1.66585        0.21642
B         -4.55033        0.84060       -0.28201
B         -4.38871        2.39946       -0.52349
B         -3.08723        3.28895       -0.34580
B         -1.66340        4.14940       -0.32956
B         -0.26555        3.37531        0.35684
B         -0.24493        4.82681       -0.46763
B          2.59770        3.40542        0.04872
B          1.18313        4.22277       -0.19156
B          2.62170        1.76658        0.42452
B          4.01281        2.59904       -0.10406
B          4.08854        0.90650        0.34828
B          1.18850        2.58504        0.58950
B          1.20771       -2.48352        0.57720
B         -3.17490       -0.06588        0.60887
B          1.17088        0.86011        0.72835
B         -4.37076       -2.33483       -0.53499
B          5.35312       -1.66176       -0.61877
B          5.34412       -0.03118       -0.38088
B          5.33999        1.80054       -0.61036
B          6.50878        0.85163       -1.21516
B          6.51467       -0.70108       -1.21893
B         -1.70397        0.86222        0.81455
B         -0.03360       -0.68425        1.93804
B         -0.24559       -1.68050        0.87396
B         -5.88210       -1.62899       -0.74710
B         -6.08366        0.08365       -0.80790
B         -5.89245        1.81437       -0.80934
B         -0.23065       -1.35587       -0.78543
