45
isomer_1496.log	Energy: -113016.2013882
B         -2.98996       -1.73783       -0.34317
B         -2.78550       -3.40361       -0.04402
B         -1.45877       -4.28362        0.11675
B          0.01105       -3.53382       -0.41603
B         -0.90983       -0.41048       -0.94517
B          1.67198       -0.92837       -0.87826
B          1.37934       -4.25787        0.30717
B         -4.12581       -0.73160       -0.27106
B          1.43393       -2.64123       -0.29279
B         -4.24007       -2.47995        0.18504
B         -0.01788       -4.89172        0.42117
B          2.76492       -3.43060        0.35931
B          2.92366       -1.88740       -0.20029
B          4.36634       -1.08990        0.32000
B          0.56217        2.11383       -0.93831
B          1.98184        2.57309       -0.23233
B          3.21623        1.61516       -0.19119
B          4.46452        0.62300        0.31733
B          4.58942        2.25241        0.67511
B          3.28758        3.21205        0.41324
B          2.00405        4.20380        0.42373
B          0.56956        3.57542       -0.35533
B          0.62787        4.89067        0.50013
B         -2.26065        3.57364       -0.06063
B         -0.83143        4.38369        0.16898
B         -2.39576        1.95956       -0.50048
B         -3.68345        2.69995        0.11794
B         -3.91706        1.12798       -0.27081
B         -0.97060        2.88072       -0.62165
B         -1.34049       -2.86472       -0.61913
B          3.16191       -0.20072       -0.57087
B         -1.10358        1.17396       -0.88425
B          4.19541       -2.73966        0.62377
B         -5.41860       -1.49260        0.71385
B         -5.21322        0.22405        0.46628
B         -5.00301        1.95768        0.67761
B         -6.20308        1.12817        1.36512
B         -6.40728       -0.41412        1.37969
B          1.86783        0.79034       -0.87734
B         -1.56774       -1.37680       -0.41981
B          0.24865       -1.74919       -0.95983
B          5.57180       -1.95650        0.89645
B          5.80886       -0.35915        0.92629
B          5.78676        1.27008        0.96225
B          0.34810        0.63226       -1.44448
