45
isomer_1497.log	Energy: -112410.3072923
B          2.64762       -1.69631        0.35315
B          2.63707       -3.33039       -0.04345
B          1.22956       -4.15428       -0.30215
B         -0.22802       -3.32376        0.24859
B          1.18887       -0.80371        0.66007
B         -1.68633       -0.82656        0.72975
B         -1.61659       -4.09863       -0.45554
B          4.10889       -0.82533        0.29620
B         -1.60822       -2.42537        0.15344
B          4.04741       -2.51248       -0.17792
B         -0.19272       -4.76452       -0.59402
B         -3.04622       -3.24779       -0.46908
B         -3.07159       -1.63207        0.11353
B         -4.52653       -0.81051       -0.38276
B         -0.24591        1.72511        0.82965
B         -1.62329        2.43008        0.20310
B         -3.08172        1.62869        0.14688
B         -4.53155        0.80844       -0.36620
B         -4.36748        2.36902       -0.59456
B         -3.06641        3.25612       -0.40256
B         -1.64209        4.11536       -0.37153
B         -0.24870        3.33489        0.31669
B         -0.22239        4.79278       -0.49627
B          2.61628        3.36528        0.02503
B          1.20367        4.18554       -0.21685
B          2.63700        1.72353        0.38813
B          4.03167        2.55906       -0.12605
B          4.10365        0.86299        0.31346
B          1.20346        2.54174        0.55139
B          1.21920       -2.52658        0.49956
B         -3.16183       -0.10600        0.52533
B          1.18385        0.81579        0.67664
B         -4.35278       -2.36505       -0.64298
B          5.37189       -1.69857       -0.66647
B          5.36268       -0.06990       -0.41589
B          5.36114        1.76356       -0.63106
B          6.53267        0.81853       -1.23663
B          6.53749       -0.73410       -1.25251
B         -1.69144        0.81937        0.74659
B         -0.19071        0.34199        0.70935
B         -0.23520       -1.72482        0.79437
B         -5.86240       -1.65645       -0.85811
B         -6.06242        0.05677       -0.90666
B         -5.86998        1.78730       -0.89348
B         -0.79154       -0.76876        3.22183
