45
isomer_1498.log	Energy: -112118.5088393
B         -2.52677       -1.71047       -0.48420
B         -2.51095       -3.34650       -0.09594
B         -1.10087       -4.16680        0.16015
B          0.35442       -3.32839       -0.38467
B         -1.07081       -0.81122       -0.78489
B          1.80453       -0.82369       -0.85140
B          1.74489       -4.10200        0.31707
B         -3.99114       -0.84489       -0.42446
B          1.73136       -2.42569       -0.28335
B         -3.92430       -2.53422        0.04109
B          0.32320       -4.77356        0.45052
B          3.17152       -3.24627        0.33659
B          3.19191       -1.62750       -0.23772
B          4.64340       -0.80342        0.26442
B          0.35532        1.72342       -0.93989
B          1.72953        2.42998       -0.30817
B          3.19068        1.63340       -0.25438
B          4.64279        0.81559        0.25615
B          4.47301        2.37440        0.49230
B          3.16907        3.25793        0.30335
B          1.74179        4.11235        0.27509
B          0.35191        3.33055       -0.41871
B          0.31960        4.78416        0.40167
B         -2.51348        3.34946       -0.13017
B         -1.10402        4.17339        0.11752
B         -2.52806        1.70953       -0.50168
B         -3.92621        2.53755        0.01517
B         -3.99177        0.84350       -0.43309
B         -1.09721        2.53356       -0.65912
B         -1.09529       -2.53499       -0.63321
B          3.27728       -0.09904       -0.64161
B         -1.07142        0.80835       -0.79316
B          4.47480       -2.35987        0.51650
B         -5.25216       -1.72745        0.53229
B         -5.24836       -0.09750        0.29005
B         -5.25346        1.73484        0.51459
B         -6.42237        0.78265        1.11399
B         -6.42178       -0.77006        1.12192
B          1.80391        0.82231       -0.85981
B         -2.81181        0.93622        1.12871
B          0.35662       -1.72666       -0.92226
B          5.98169       -1.64712        0.73697
B          6.17567        0.06651        0.79451
B          5.97720        1.79641        0.78995
B         -1.12387       -1.04876        0.07131
