45
isomer_1499.log	Energy: -113666.2274337
B         -2.54771       -1.73969       -0.33063
B         -2.46270       -3.35264        0.10280
B         -1.07685       -4.17578        0.15515
B          0.32042       -3.39212       -0.50263
B         -1.15971       -0.85772       -0.88950
B          1.74811       -0.81129       -0.82993
B          1.72550       -4.14615        0.24222
B         -3.98596       -0.89659       -0.27562
B          1.76313       -2.51696       -0.44163
B         -3.86990       -2.53750        0.29646
B          0.32117       -4.75989        0.35441
B          3.08604       -3.30226        0.22617
B          3.16735       -1.70864       -0.27154
B          4.55851       -0.83123        0.13673
B          0.33403        1.84184       -1.11273
B          1.75833        2.53220       -0.41146
B          3.15890        1.72785       -0.24387
B          4.54560        0.85240        0.15784
B          4.40905        2.46369        0.73755
B          3.05651        3.30100        0.30674
B          1.68793        4.13556        0.33052
B          0.30894        3.39907       -0.48819
B          0.27587        4.72217        0.43589
B         -2.48779        3.33278        0.02178
B         -1.11024        4.15438        0.15588
B         -2.53570        1.75924       -0.49045
B         -3.86768        2.51586        0.23735
B         -3.98576        0.88185       -0.24676
B         -1.15008        2.60892       -0.76696
B         -1.15653       -2.58910       -0.64085
B          3.29738        0.00962       -0.62595
B         -1.13878        0.86424       -0.98355
B          4.43543       -2.46806        0.66558
B         -5.14553       -1.71022        0.76994
B         -5.20062       -0.01558        0.47971
B         -5.12460        1.68642        0.77571
B         -6.18983        0.74536        1.46943
B         -6.20969       -0.77284        1.45887
B          1.75662        0.86014       -0.89201
B         -2.63993       -0.01011       -0.79547
B          0.32473       -1.80725       -1.05699
B          5.50704       -1.54939        1.20578
B          5.68487       -0.00302        1.21081
B          5.48375        1.53939        1.25419
B          0.33038        0.02002       -0.89078
