45
isomer_1500.log	Energy: -113358.6524664
B          2.30452       -1.83525        0.75946
B          1.99135       -3.16273       -0.15140
B          0.61512       -3.64230       -0.75928
B         -0.76466       -3.25611        0.02705
B          1.33973       -0.62283        1.18700
B         -2.02332       -1.02464        1.03255
B         -2.17696       -3.58068       -1.04508
B          3.78966       -1.10228        0.33958
B         -2.32717       -2.68334        0.42850
B          3.43675       -2.62912       -0.15014
B         -0.71206       -3.97691       -1.38650
B         -3.58863       -2.96612       -0.66454
B         -3.31740       -1.45152       -0.01202
B         -4.63762       -0.40771       -0.09229
B          0.17323        1.93404        0.95273
B         -1.22830        2.44311        0.23804
B         -2.72463        1.77071        0.32066
B         -4.36401        1.22482        0.27790
B         -4.01196        2.69814       -0.45052
B         -2.50519        3.27237       -0.39112
B         -1.11387        3.94816       -0.69595
B          0.22818        3.40153        0.24847
B          0.31599        4.40766       -1.00156
B          3.07261        3.08539       -0.47380
B          1.72338        3.93369       -0.66761
B          3.05694        1.70164        0.55580
B          4.34017        2.10213       -0.47216
B          4.10373        0.54346        0.13513
B          1.67829        2.51320        0.24998
B          0.63889       -2.33212        0.70899
B         -3.12322        0.14090        0.68398
B          1.71597        0.98293        1.05608
B         -4.87101       -2.00030       -0.70990
B          4.98293       -2.10805       -0.41336
B          5.33807       -0.52599        0.05174
B          5.52891        1.07337       -0.68355
B          6.41544       -0.07464       -1.15486
B          6.24977       -1.52738       -0.96393
B         -1.30627        0.70924        0.95681
B          0.25737        0.51561        1.72249
B         -0.95281       -2.33417        1.37171
B         -5.96803       -0.93983       -0.79564
B         -5.87941        0.60028       -0.66621
B         -5.33934        2.02817       -0.71906
B         -0.36111       -0.84652        1.21580
