45
isomer_1501.log	Energy: -113467.1471900
B          2.31407        1.99971       -0.41588
B          2.09268        3.51231        0.18334
B          0.61900        4.21862        0.25249
B         -0.70348        3.35771       -0.40500
B          0.92660        0.94019       -0.89489
B         -1.88414        0.72580       -0.80431
B         -2.18351        4.02622        0.17416
B          3.77130        1.23097       -0.07674
B         -2.07924        2.39895       -0.54239
B          3.57346        2.85681        0.37512
B         -0.82796        4.71522        0.41345
B         -3.49575        3.09388        0.06994
B         -3.46034        1.51024       -0.39106
B         -4.81465        0.51618       -0.17308
B         -0.26451       -1.62563       -1.02890
B         -1.51755       -2.43759       -0.19579
B         -3.02009       -1.84714       -0.12501
B         -4.49130       -1.06861        0.25595
B         -4.19782       -2.64870        0.85347
B         -2.74099       -3.33995        0.49883
B         -1.27357       -4.02829        0.48189
B         -0.04309       -3.22936       -0.39115
B          0.17690       -4.54850        0.47228
B          2.69867       -3.15265       -0.95796
B          1.53719       -3.92292        0.06709
B          2.66372       -1.51812       -0.64768
B          4.00763       -2.17373        0.22119
B          3.94089       -0.48305       -0.25910
B          1.27378       -2.38338       -1.07108
B          0.82034        2.62619       -0.47852
B         -3.34303       -0.19696       -0.66531
B          1.06113       -0.64799       -0.94531
B         -4.79386        2.19170        0.41975
B          4.92843        2.15555        0.79134
B          5.22510        0.46404        0.26160
B          5.29499       -1.22300        0.56101
B          6.24975       -0.24038        1.28475
B          6.04354        1.26626        1.40785
B         -1.72570       -0.87430       -0.87667
B          2.81746       -3.06763        0.59754
B         -0.57375        1.68880       -0.87897
B         -5.76944        1.16005        0.95529
B         -5.83648       -0.37082        1.05839
B         -5.46485       -1.88091        1.20763
B          2.46847        0.25419       -0.63955
