45
isomer_1502.log	Energy: -113365.7630058
B         -2.49416       -1.46524       -0.68631
B         -2.28447       -2.99342        0.24275
B         -1.37473       -4.17045       -0.32736
B          0.07406       -3.20316       -0.95474
B         -1.15986       -0.54228       -1.00354
B          1.70969       -0.70373       -0.96651
B          1.25112       -3.86050        0.31144
B         -3.82054       -0.62685       -0.16787
B          1.58650       -2.38344       -0.65810
B         -3.64597       -2.13497        0.43117
B          0.00084       -4.69265        0.09227
B          2.68950       -3.11771        0.37894
B          3.04238       -1.69221       -0.34233
B          4.50128       -0.88596        0.06532
B          0.38688        1.84118       -1.16766
B          1.79035        2.52867       -0.49295
B          3.18318        1.73046       -0.27446
B          4.41566        0.74594        0.34017
B          4.45756        2.42775        0.67993
B          3.11290        3.26518        0.26841
B          1.74210        4.11686        0.29488
B          0.37882        3.45848       -0.53394
B          0.34951        4.72992        0.41848
B         -2.42284        3.44127       -0.03746
B         -1.05942        4.17596        0.09324
B         -2.49020        1.75075       -0.62196
B         -3.72680        2.65915        0.13081
B         -3.89568        1.07932       -0.27535
B         -1.10457        2.65140       -0.82465
B         -1.36621       -2.48950       -1.30664
B          3.23296        0.03098       -0.63143
B         -1.05522        1.04141       -1.11543
B          4.10140       -2.40540        0.80379
B         -4.95696       -1.39426        0.90590
B         -5.14858        0.21259        0.35122
B         -5.06108        1.85898        0.71185
B         -6.04388        1.01358        1.50642
B         -5.95492       -0.45834        1.62975
B          1.75119        0.90203       -1.03590
B         -0.44039       -3.17301        0.78314
B          0.24398       -1.42218       -1.06167
B          5.22871       -1.54828        1.34655
B          5.62285       -0.06431        1.26349
B          5.55032        1.49099        1.18891
B         -0.89726       -1.72500        0.24747
