45
isomer_1503.log	Energy: -113659.9863343
B         -2.53105       -1.76139       -0.51371
B         -2.43688       -3.33304        0.05588
B         -1.07051       -4.19718        0.05659
B          0.34121       -3.42433       -0.59342
B         -1.15183       -0.84451       -1.11235
B          1.72896       -0.82609       -0.76803
B          1.72403       -4.18828        0.19740
B         -3.94355       -0.89245       -0.18658
B          1.75859       -2.53300       -0.40861
B         -3.81788       -2.52736        0.30542
B          0.31628       -4.80292        0.25543
B          3.06833       -3.30703        0.28300
B          3.14972       -1.70433       -0.19555
B          4.53636       -0.81761        0.20397
B          0.30787        1.79275       -0.95096
B          1.71996        2.55111       -0.37067
B          3.13135        1.73372       -0.17997
B          4.54445        0.87581        0.16052
B          4.37298        2.50128        0.75438
B          3.02335        3.33463        0.30256
B          1.66170        4.19098        0.22155
B          0.29429        3.43605       -0.62286
B          0.24368        4.78399        0.27427
B         -2.49125        3.31208        0.05490
B         -1.13444        4.18212        0.05014
B         -2.56850        1.74813       -0.55446
B         -3.86166        2.50045        0.26844
B         -3.96736        0.85575       -0.20731
B         -1.17055        2.57529       -0.74664
B         -1.14079       -2.59102       -0.73997
B          3.23169        0.01660       -0.51085
B         -1.17435        0.85254       -1.08523
B          4.40574       -2.46823        0.73868
B         -5.06376       -1.71877        0.87769
B         -5.19760       -0.02406        0.53044
B         -5.09605        1.67463        0.84492
B         -6.07434        0.73668        1.63459
B         -6.05906       -0.78525        1.64801
B          1.70413        0.84240       -0.75711
B         -2.60003       -0.01339       -0.74692
B          0.32171       -1.79330       -0.94669
B          5.49081       -1.53547        1.25689
B          5.66799        0.02010        1.24206
B          5.44796        1.57003        1.28152
B          0.35827        0.00190       -1.30136
