45
isomer_1506.log	Energy: -113484.4542206
B         -2.28524       -1.27043       -0.11074
B         -3.17972       -2.62040       -0.92405
B         -2.22328       -3.84222       -0.67310
B         -0.41168       -3.59596       -1.13241
B         -0.96163       -0.84069       -1.02091
B          1.03973       -0.95162       -0.87594
B          0.27598       -4.05485        0.49408
B         -3.41030       -0.09607        0.14212
B          0.59933       -2.41933        0.05298
B         -4.05876       -1.57825       -0.15479
B         -1.11922       -4.51390        0.08490
B          1.71118       -3.43015        0.81955
B          2.18895       -1.98130        0.13819
B          3.69664       -1.47125        0.68130
B          0.85703        1.95133       -1.52917
B          2.39042        2.32202       -0.99641
B          3.31641        1.10629       -0.42540
B          4.38006       -0.07479        0.10857
B          4.71408        1.60806        0.46483
B          3.76742        2.71458       -0.17654
B          2.65579        3.89970       -0.22125
B          1.12327        3.45656       -0.85774
B          1.43315        4.79901       -0.01741
B         -1.42549        3.70209        0.19101
B         -0.03187        4.39485        0.00588
B         -1.72845        2.17136       -0.18177
B         -2.83783        3.09172        0.72402
B         -3.01050        1.46322        0.43741
B         -0.36394        2.65344       -0.81779
B         -1.70234       -2.31109       -1.62410
B          2.86203       -0.57443       -0.52286
B         -1.61838        0.51944       -0.41873
B          3.18465       -2.93980        1.31066
B         -5.06600       -0.64609        0.58427
B         -4.41254        0.82994        1.11331
B         -4.23070        2.52809        1.21099
B         -5.60044        1.85222        1.51942
B         -5.97712        0.43394        1.21907
B          1.68827        0.62038       -0.93379
B         -1.22763       -2.60041        0.13255
B          0.00422       -2.09471       -1.61708
B          4.49015       -2.37110        1.76759
B          5.13305       -0.99017        1.51792
B          5.37995        0.49186        1.25050
B         -0.00872        0.65890       -0.73912
