45
isomer_1508.log	Energy: -110414.1649839
B          2.58500        1.81096       -0.42273
B          2.55919        3.45283       -0.06048
B          1.14353        4.27168        0.16803
B         -0.30294        3.41928       -0.37856
B          1.13553        0.90157       -0.72428
B         -1.73899        0.90206       -0.82076
B         -1.70345        4.19854        0.29646
B          4.05180        0.95201       -0.33419
B         -1.67757        2.51306       -0.27730
B          3.97397        2.64818        0.10397
B         -0.28568        4.87751        0.43403
B         -3.12709        3.33779        0.31468
B         -3.13560        1.71014       -0.23423
B         -4.58924        0.88854        0.26577
B         -0.27967       -1.64060       -0.85409
B         -1.65781       -2.34236       -0.22558
B         -3.12233       -1.55060       -0.19950
B         -4.58265       -0.73039        0.28302
B         -4.40967       -2.28464        0.54545
B         -3.10062       -3.16607        0.38396
B         -1.67002       -4.01539        0.38395
B         -0.27584       -3.23932       -0.30764
B         -0.24679       -4.67972        0.53583
B          2.58644       -3.24279        0.01083
B          1.17748       -4.06808        0.25686
B          2.59892       -1.60885       -0.38631
B          3.99461       -2.42332        0.15798
B          4.05867       -0.73630       -0.31621
B          1.17279       -2.44069       -0.54556
B          1.15216        2.62759       -0.59954
B         -3.21119        0.17520       -0.61485
B          1.14212       -0.71792       -0.70703
B         -4.42893        2.44938        0.49502
B          5.29957        1.85428        0.62154
B          5.30422        0.22072        0.40499
B          5.31366       -1.60783        0.65841
B          6.47278       -0.64189        1.25481
B          6.46646        0.91073        1.23827
B         -1.73229       -0.74386       -0.80323
B          2.03492       -1.85984       -1.04390
B         -0.29371        1.80930       -0.89084
B         -5.93543        1.73447        0.71108
B         -6.12376        0.02123        0.79360
B         -5.91897       -1.70777        0.81836
B         -0.67362       -2.23885       -0.39010
