45
isomer_0151.log	Energy: -113489.6627124
B          2.17903        2.17515       -0.49347
B          1.74501        3.69202        0.18674
B          0.27637        4.33596        0.11307
B         -0.95784        3.36288       -0.64180
B          0.99213        1.17057       -1.21739
B         -1.86894        0.55941       -0.94620
B         -2.44592        3.85667        0.10288
B          3.67527        1.60855       -0.04822
B         -2.20056        2.25487       -0.71725
B          3.06061        2.95870        0.74079
B         -1.20266        4.70152        0.24063
B         -3.62075        2.74324        0.10631
B         -3.40394        1.17886       -0.32659
B         -4.62415       -0.00208        0.02901
B          0.07196       -1.68531       -1.35987
B         -1.06505       -2.58717       -0.43816
B         -2.59425       -2.14147       -0.12446
B         -4.04816       -1.49933        0.48820
B         -3.53792       -3.03915        1.04764
B         -2.02509       -3.50225        0.56481
B         -0.44884       -3.99370        0.51045
B          0.56984       -2.96852       -0.36649
B          1.03543       -4.24236        0.46906
B          3.43747       -2.30647        0.34357
B          2.24980       -3.37274       -0.07054
B          2.88470       -0.94086       -1.21556
B          4.38626       -1.51367       -0.79466
B          3.98193        0.06063       -0.47222
B          1.67558       -2.12561       -1.34985
B          0.69162        2.83530       -0.70738
B         -3.18192       -0.55661       -0.62052
B          1.33611       -0.35999       -1.35707
B         -4.72675        1.68083        0.60198
B          4.02831        2.14283        1.63364
B          4.21001        0.53028        1.12691
B          4.47634       -1.15924        0.92002
B          5.04426       -0.35629        2.17793
B          4.85706        1.08790        2.48520
B         -1.53227       -1.02983       -1.09775
B          3.27499       -2.62503       -1.28583
B         -0.66348        1.83786       -1.20198
B         -5.51044        0.55202        1.25072
B         -5.38769       -0.97539        1.40811
B         -4.82636       -2.42393        1.53826
B         -0.26713        0.08096       -1.23266
