45
isomer_1513.log	Energy: -113662.1001043
B          2.59460       -1.73040        0.56191
B          2.53397       -3.31818       -0.05489
B          1.16361       -4.15261       -0.11788
B         -0.27798       -3.40471        0.53435
B          1.14780       -0.87329        0.88721
B         -1.73108       -0.81834        0.82007
B         -1.64660       -4.17993       -0.25138
B          3.97132       -0.84111        0.21319
B         -1.72743       -2.53743        0.37072
B          3.89469       -2.50600       -0.24914
B         -0.22250       -4.74566       -0.35854
B         -3.02680       -3.34943       -0.25758
B         -3.16054       -1.74812        0.25674
B         -4.56920       -0.89438       -0.09173
B         -0.36607        1.83000        1.08501
B         -1.78930        2.52937        0.46159
B         -3.16324        1.69590        0.21038
B         -4.53944        0.79490       -0.21638
B         -4.41350        2.43709       -0.75605
B         -3.08255        3.27782       -0.31799
B         -1.73516        4.14382       -0.28081
B         -0.35243        3.39207        0.50259
B         -0.33742        4.75085       -0.37604
B          2.43394        3.33704       -0.04760
B          1.05366        4.16739       -0.13602
B          2.51674        1.76411        0.52290
B          3.83246        2.54328       -0.28016
B          3.93233        0.91494        0.14612
B          1.12240        2.60176        0.73586
B          1.17879       -2.56068        0.66662
B         -3.28487       -0.01156        0.60696
B          1.13056        0.84693        1.06914
B         -4.36040       -2.50616       -0.71351
B          5.15564       -1.67530       -0.76103
B          5.23446        0.03031       -0.45358
B          5.09773        1.73571       -0.81883
B          6.12974        0.78701       -1.53973
B          6.15627       -0.72966       -1.51488
B         -1.79192        0.84832        0.90707
B          2.57086        0.02302        0.67674
B         -0.34472       -1.77787        0.89245
B         -5.41779       -1.57708       -1.26471
B         -5.66014       -0.04116       -1.23837
B         -5.50247        1.51456       -1.25433
B         -0.34802        0.01285        1.22353
