45
isomer_1515.log	Energy: -113500.9841968
B          2.57182       -1.70822        0.57147
B          3.02580       -3.12955       -0.68723
B          1.90840       -4.05326       -1.10630
B         -0.00226       -3.19763        0.71799
B          1.07091       -0.63364        1.05479
B         -1.78247       -0.85893        1.10911
B         -1.10916       -3.88705       -0.32203
B          3.86153       -0.55949        0.21946
B         -1.49611       -2.43072        0.46964
B          4.12715       -2.08790       -0.25502
B          0.41489       -4.12317       -0.66005
B         -2.63341       -3.32801       -0.37488
B         -3.01756       -1.88547        0.29066
B         -4.44673       -1.10254       -0.20846
B         -0.61816        1.71638        0.82742
B         -2.10345        2.38849        0.40414
B         -3.48021        1.49841        0.33340
B         -4.82623        0.49072        0.13419
B         -4.81002        2.12849       -0.54205
B         -3.51720        3.06126       -0.22350
B         -2.22005        3.99991       -0.33935
B         -0.74051        3.36673        0.33049
B         -0.85899        4.68271       -0.55645
B          2.07390        3.51075       -0.20885
B          0.59343        4.21735       -0.32091
B          2.24159        1.95466        0.32118
B          3.53713        2.83637       -0.32529
B          3.72075        1.18223        0.09097
B          0.77400        2.64786        0.42529
B          1.65986       -3.20668        0.20584
B         -3.36399       -0.18393        0.72735
B          0.90195        0.94264        0.81297
B         -4.11006       -2.70194       -0.73864
B          5.40929       -1.18772       -0.39287
B          5.21598        0.48868       -0.13194
B          4.95163        2.13475       -0.61460
B          6.23441        1.31764       -1.05444
B          6.47400       -0.16144       -0.90053
B         -1.90706        0.73651        0.81750
B          2.37786        0.22407        0.52919
B         -0.33735       -1.53478        1.36803
B         -5.39717       -1.97458       -1.13588
B         -5.80105       -0.47624       -1.05573
B         -5.77298        1.07376       -1.02624
B          1.20591       -2.18742        1.42014
