45
isomer_1516.log	Energy: -112846.9043253
B          2.55502       -1.55738        0.26763
B          2.49476       -3.21757       -0.08220
B          1.12399       -4.05167       -0.29156
B         -0.29484       -3.27881        0.26187
B          1.08099       -0.69334        0.60531
B         -1.73373       -0.80181        0.76640
B         -1.65229       -4.08549       -0.38773
B          3.90536       -0.75610        0.21722
B         -1.67740       -2.42976        0.19662
B          3.85137       -2.37051       -0.25503
B         -0.25204       -4.65067       -0.52745
B         -3.06564       -3.26608       -0.37689
B         -3.11496       -1.65698        0.18227
B         -4.58852       -0.83315       -0.26489
B         -0.35951        1.68718        0.81148
B         -1.74194        2.43295        0.21157
B         -3.15757        1.62843        0.19367
B         -4.58925        0.79419       -0.25826
B         -4.49453        2.37890       -0.53563
B         -3.12548        3.24173       -0.36060
B         -1.72974        4.07967       -0.36410
B         -0.35085        3.31319        0.29374
B         -0.32938        4.67642       -0.48940
B          2.46269        3.31366       -0.04873
B          1.06562        4.11407       -0.24804
B          2.53506        1.67510        0.34305
B          3.83200        2.49423       -0.19836
B          3.89965        0.89529        0.22242
B          1.09330        2.51699        0.50291
B          1.12637       -2.44091        0.46163
B         -3.20921       -0.07532        0.57909
B          1.04139        0.75250        0.60207
B         -4.46856       -2.43834       -0.54505
B          5.15176       -1.62403       -0.74011
B          5.12606        0.00217       -0.48583
B          5.11258        1.69791       -0.70579
B          6.19154        0.80436       -1.30575
B          6.25737       -0.70299       -1.32858
B         -1.75841        0.83378        0.77196
B          1.98999       -1.61888        1.77853
B         -0.30904       -1.65783        0.78976
B         -5.82784       -1.60533       -0.68428
B         -5.99356       -0.00599       -0.71945
B         -5.84173        1.58065       -0.72690
B          1.76914        0.90555        1.87142
