45
isomer_1517.log	Energy: -113458.7043545
B         -2.54861        1.66379        0.62735
B         -2.53660        3.38423        0.04435
B         -1.18557        4.14515       -0.03752
B          0.27461        3.43235        0.63104
B         -1.20529        0.93556        1.06374
B          1.75032        0.92257        0.98901
B          1.65151        4.15540       -0.21072
B         -3.90836        0.91751        0.15317
B          1.71388        2.56644        0.47422
B         -3.79872        2.52022       -0.20414
B          0.22868        4.70717       -0.33119
B          3.01917        3.31847       -0.26964
B          3.09119        1.74254        0.22749
B          4.37013        0.78572       -0.37764
B          0.29199       -1.74423        1.46226
B          1.39884       -2.40859        0.01317
B          3.00158       -1.72321        0.11285
B          4.46707       -0.86991       -0.09808
B          4.20812       -2.49969       -0.76531
B          2.87076       -3.28276       -0.32032
B          1.55030       -4.13497       -0.03687
B          0.23342       -3.33075        0.92509
B          0.17575       -4.70853        0.04453
B         -2.52979       -3.30915       -0.04842
B         -1.23134       -4.12217        0.17435
B         -2.57484       -1.60676        0.45300
B         -3.81155       -2.44483       -0.30495
B         -3.89883       -0.84855        0.11493
B         -1.09490       -2.40824        0.26907
B         -1.19986        2.57575        0.73712
B          3.15816       -0.00354        0.51773
B         -1.21612       -0.74651        0.85052
B          4.34212        2.46191       -0.75533
B         -5.09472        1.69266       -0.77005
B         -5.16061        0.04128       -0.43537
B         -5.12983       -1.60573       -0.85315
B         -6.14450       -0.69881       -1.53776
B         -6.13196        0.79761       -1.51309
B          1.59319       -0.76985        0.56299
B          0.24650        0.00519        1.22577
B          0.32594        1.81932        1.19842
B          5.43583        1.53468       -1.26451
B          5.58081       -0.04176       -1.25809
B          5.32027       -1.56182       -1.25473
B          0.10185       -1.25516       -0.22531
