45
isomer_0152.log	Energy: -112528.4519645
B          2.72303       -1.71906        0.42556
B          2.62059       -3.44748        0.03656
B          1.27988       -4.44798       -0.24671
B         -0.23281       -3.63179        0.28738
B          1.32178       -0.69591        0.78508
B         -1.86005       -0.64470        0.85243
B         -1.70595       -4.42765       -0.40378
B          4.06728       -0.84150        0.32968
B         -1.99577       -2.43098        0.17724
B          3.99276       -2.49138       -0.11277
B         -0.21328       -5.01816       -0.49863
B         -3.21271       -3.30294       -0.38212
B         -3.26925       -1.60286        0.17874
B         -4.63498       -0.68116       -0.29492
B         -0.21266        1.94198        0.93634
B         -1.60548        2.57270        0.26166
B         -3.09611        1.77651        0.21020
B         -4.56863        0.93338       -0.28452
B         -4.40286        2.52888       -0.60363
B         -2.97609        3.35280       -0.37974
B         -1.53584        4.19335       -0.38255
B         -0.16396        3.49311        0.32918
B         -0.14182        4.78674       -0.51721
B          2.67552        3.47049       -0.02650
B          1.29291        4.27135       -0.24993
B          2.71393        1.83894        0.39538
B          4.03977        2.54214       -0.19664
B          4.08821        0.94357        0.30529
B          1.32445        2.74057        0.55281
B          1.36333       -2.64490        0.57602
B         -3.27276        0.08388        0.60941
B          1.32262        1.11127        0.72921
B         -4.63037       -2.33303       -0.60084
B          5.23383       -1.70936       -0.64885
B          5.24231       -0.02899       -0.42625
B          5.24534        1.69675       -0.67380
B          6.30782        0.72075       -1.27528
B          6.33979       -0.74128       -1.28097
B         -1.74526        0.98984        0.85233
B          0.36965        0.26585        1.64740
B         -0.20811       -1.38704        1.02971
B         -5.87829       -1.40605       -0.75759
B         -5.96661        0.20937       -0.81079
B         -5.72426        1.70825       -0.83085
B         -0.31090       -2.53828        0.37726
