45
isomer_1520.log	Energy: -111379.2437547
B          2.61894       -1.62411        0.37378
B          2.61616       -3.25815       -0.02309
B          1.21220       -4.09121       -0.27153
B         -0.24667       -3.27036        0.29018
B          1.15668       -0.74114        0.69171
B         -1.71771       -0.78286        0.78270
B         -1.63531       -4.05420       -0.40380
B          4.07400       -0.74355        0.30618
B         -1.63339       -2.38102        0.20546
B          4.02007       -2.43098       -0.16783
B         -0.20817       -4.71071       -0.55298
B         -3.07055       -3.21275       -0.40655
B         -3.10220       -1.59733        0.17658
B         -4.56612       -0.78524       -0.30872
B         -0.29335        1.77818        0.87247
B         -1.67993        2.47422        0.25630
B         -3.13345        1.66329        0.21072
B         -4.58164        0.83363       -0.29177
B         -4.42950        2.39530       -0.52100
B         -3.13289        3.29088       -0.33845
B         -1.71404        4.15944       -0.31780
B         -0.31049        3.38800        0.35990
B         -0.29978        4.84617       -0.45291
B          2.55198        3.43723        0.04701
B          1.13226        4.24824       -0.18421
B          2.58616        1.79559        0.40959
B          3.97146        2.64034       -0.11473
B          4.05782        0.94469        0.32386
B          1.14853        2.60435        0.58366
B          1.19711       -2.46374        0.53059
B         -3.19938       -0.07195        0.58938
B          1.14116        0.87829        0.70866
B         -4.38412       -2.33856       -0.57057
B          5.33552       -1.60833       -0.66601
B          5.31750        0.02020       -0.41501
B          5.30234        1.85366       -0.62976
B          6.47552        0.91644       -1.24421
B          6.49040       -0.63613       -1.26047
B         -1.73349        0.86300        0.79993
B          0.47313       -0.02806        1.41534
B         -0.26028       -1.67159        0.83635
B         -5.89991       -1.63984       -0.77435
B         -6.11151        0.07203       -0.82103
B         -5.93033        1.80379       -0.80890
B          0.39530       -2.76514        0.77531
