45
isomer_1522.log	Energy: -113458.7476853
B         -2.54901       -1.66170       -0.63473
B         -2.53784       -3.38241       -0.05475
B         -1.18925       -4.14662        0.02033
B          0.27432       -3.43690       -0.65460
B         -1.20199       -0.93735       -1.06878
B          1.74975       -0.92434       -0.98579
B          1.64759       -4.15862        0.19969
B         -3.90588       -0.91262       -0.15373
B          1.70957       -2.56980       -0.47499
B         -3.79850       -2.51387        0.20136
B          0.22379       -4.70676        0.31617
B          3.01577       -3.32257        0.26900
B          3.08787       -1.74673       -0.22349
B          4.35966       -0.78786        0.39926
B          0.28809        1.73420       -1.45971
B          1.40869        2.41338       -0.04955
B          2.99981        1.71832       -0.10837
B          4.46175        0.86777        0.10866
B          4.20779        2.50265        0.76367
B          2.87293        3.28643        0.30182
B          1.55565        4.14116        0.00612
B          0.23196        3.33080       -0.94156
B          0.18111        4.71765       -0.07940
B         -2.52377        3.31422        0.04907
B         -1.22589        4.12615       -0.18862
B         -2.56772        1.60831       -0.43671
B         -3.80459        2.45346        0.31261
B         -3.89360        0.85376       -0.10241
B         -1.08654        2.40836       -0.25856
B         -1.20107       -2.57743       -0.74577
B          3.14993        0.00005       -0.49975
B         -1.21707        0.73997       -0.83223
B          4.33470       -2.46490        0.76535
B         -5.09311       -1.69035        0.77107
B         -5.15250       -0.03608        0.44908
B         -5.11837        1.60903        0.86990
B         -6.13207        0.69900        1.55589
B         -6.12709       -0.79768        1.52027
B          1.57846        0.75219       -0.51558
B          0.09898        1.25358        0.23290
B          0.32654       -1.81905       -1.21125
B          5.42853       -1.53647        1.27906
B          5.57334        0.04066        1.27172
B          5.31233        1.56292        1.26434
B          0.24696       -0.00394       -1.24702
