45
isomer_1523.log	Energy: -113179.4563613
B          2.56912        1.46989       -0.38806
B          2.46425        3.27803        0.24101
B          1.15268        4.04523        0.37322
B         -0.27117        3.22290       -0.08644
B          1.05890        0.69555       -0.44405
B         -1.75034        0.79537       -0.81131
B         -1.67887        4.12986        0.16982
B          4.11292        1.19434       -0.58517
B         -1.71075        2.41468       -0.38822
B          3.80281        2.62702        0.04917
B         -0.28804        4.70258        0.43730
B         -3.09066        3.35107       -0.00670
B         -3.23151        1.80360       -0.51063
B         -4.76425        0.97065       -0.48133
B         -0.48909       -0.80905       -0.75687
B         -1.53023       -2.02826        0.27682
B         -3.15155       -1.56245       -0.21278
B         -4.66011       -0.65924        0.01999
B         -4.48597       -2.19119        0.77755
B         -3.06486       -2.92568        0.58281
B         -1.90525       -3.79746        0.10451
B         -0.18240       -3.29675        0.03719
B         -0.82508       -4.78490       -0.32581
B          3.05096       -3.14815        0.10470
B          0.60768       -4.77279       -0.20436
B          2.65732       -1.50146       -0.33839
B          4.17145       -2.04012        0.05737
B          3.96855       -0.48486       -0.46706
B          1.43830       -2.49029        0.13719
B          1.16706        2.26149        0.04543
B         -3.39097        0.08956       -0.87204
B          1.11790       -0.86734       -0.38372
B         -4.50633        2.62558        0.21001
B          5.33248        2.04774        0.26199
B          5.38515        0.38149       -0.06040
B          5.50910       -1.22678        0.31777
B          6.58532       -0.25286        0.82869
B          6.49360        1.22708        0.82651
B         -1.95676       -0.75580       -1.09768
B          1.96050       -4.10711        0.03003
B         -0.32450        1.51967       -0.46174
B         -5.65630        1.72472        0.64375
B         -5.94939        0.20614        0.76672
B         -5.74456       -1.35333        0.97944
B          0.00290       -1.72835        0.60377
