45
isomer_1524.log	Energy: -112825.4922934
B          2.64939       -1.61249        0.42358
B          2.66297       -3.26903        0.00313
B          1.25202       -4.11126       -0.24027
B         -0.22665       -3.30881        0.32940
B          1.18736       -0.66658        0.77742
B         -1.73562       -0.80200        0.82715
B         -1.60838       -4.06773       -0.37671
B          4.05490       -0.73685        0.32557
B         -1.65601       -2.40963        0.23815
B          4.00727       -2.42169       -0.13463
B         -0.16014       -4.69985       -0.51529
B         -3.04952       -3.24061       -0.39261
B         -3.10894       -1.62867        0.19158
B         -4.56571       -0.80660       -0.29915
B         -0.29091        1.75863        0.92736
B         -1.69204        2.45233        0.30787
B         -3.13861        1.64404        0.24899
B         -4.57808        0.81751       -0.26821
B         -4.43856        2.38652       -0.49888
B         -3.12163        3.26343       -0.29226
B         -1.71512        4.12523       -0.26709
B         -0.31666        3.36875        0.40631
B         -0.31363        4.78994       -0.40020
B          2.52541        3.41092        0.06060
B          1.10440        4.21191       -0.14890
B          2.57546        1.77857        0.44026
B          3.92641        2.61117       -0.10899
B          4.02933        0.95110        0.33933
B          1.14989        2.58699        0.62165
B          1.24719       -2.50347        0.57830
B         -3.21002       -0.08694        0.61538
B          1.14858        0.87667        0.76463
B         -4.40075       -2.37337       -0.58174
B          5.29011       -1.57776       -0.66052
B          5.26003        0.04540       -0.40993
B          5.23354        1.83808       -0.62823
B          6.36953        0.93564       -1.25410
B          6.40624       -0.60285       -1.27408
B         -1.74728        0.84051        0.84850
B          0.88839       -1.78985        1.59259
B         -0.30944       -1.67441        0.91302
B         -5.85832       -1.62815       -0.78037
B         -6.05755        0.05318       -0.81091
B         -5.88601        1.72611       -0.78389
B          0.21718       -0.45404       -0.65385
