45
isomer_1525.log	Energy: -113675.8213168
B          2.53919        1.74532       -0.50918
B          2.47312        3.31448        0.04286
B          1.10454        4.15185        0.12250
B         -0.30528        3.39492       -0.52358
B          1.15220        0.84784       -1.06201
B         -1.74503        0.83753       -0.85239
B         -1.68979        4.15508        0.25928
B          3.97162        0.87376       -0.22016
B         -1.76197        2.54253       -0.46083
B          3.84403        2.50850        0.28331
B         -0.27632        4.74638        0.35985
B         -3.04546        3.30845        0.27615
B         -3.15051        1.70744       -0.24210
B         -4.54292        0.85044        0.18553
B         -0.34140       -1.83143       -1.10555
B         -1.76846       -2.54104       -0.46539
B         -3.15427       -1.70289       -0.24521
B         -4.54203       -0.84242        0.19199
B         -4.37251       -2.46730        0.76059
B         -3.05269       -3.30365        0.27454
B         -1.69887       -4.15292        0.25816
B         -0.31225       -3.39366       -0.52221
B         -0.28667       -4.74611        0.35961
B          2.46587       -3.31732        0.04355
B          1.09520       -4.15253        0.12400
B          2.53484       -1.74808       -0.50612
B          3.83879       -2.51293        0.28527
B          3.96904       -0.87923       -0.21863
B          1.14939       -2.58412       -0.77687
B          1.15502        2.58292       -0.77902
B         -3.29539        0.00145       -0.60830
B          1.14911       -0.84819       -1.06023
B         -4.36583        2.47210        0.76248
B          5.08776        1.69210        0.85206
B          5.19782       -0.00376        0.52105
B          5.08345       -1.69915        0.85488
B          6.09549       -0.76528        1.60816
B          6.09742        0.75672        1.60706
B         -1.75022       -0.83625       -0.86106
B          2.60967       -0.00154       -0.74381
B         -0.33668        1.83180       -1.10325
B         -5.42344        1.54791        1.32231
B         -5.62149        0.00300        1.30300
B         -5.43135       -1.54313        1.31909
B         -0.34275        0.00043       -1.11137
