45
isomer_1526.log	Energy: -112194.3892509
B         -2.57441        1.79832        0.42379
B         -2.54742        3.43499        0.03883
B         -1.13131        4.24871       -0.20467
B          0.31549        3.40202        0.34987
B         -1.12534        0.89124        0.73408
B          1.74942        0.88923        0.82304
B          1.71523        4.17000       -0.33951
B         -4.04256        0.94019        0.35095
B          1.68867        2.49264        0.25754
B         -3.96368        2.63003       -0.11079
B          0.29799        4.84891       -0.48274
B          3.13770        3.30719       -0.34956
B          3.14554        1.68726        0.22176
B          4.59678        0.85689       -0.27064
B          0.28690       -1.65077        0.89531
B          1.66246       -2.36299        0.27295
B          3.12794       -1.57362        0.23211
B          4.58805       -0.76211       -0.26550
B          4.41235       -2.31961       -0.50598
B          3.10259       -3.19697       -0.32892
B          1.67090       -4.04430       -0.31344
B          0.27955       -3.25688        0.37100
B          0.24641       -4.70875       -0.45241
B         -2.58356       -3.26093        0.06008
B         -1.17632       -4.09142       -0.17820
B         -2.59287       -1.62165        0.43464
B         -3.99105       -2.44169       -0.09470
B         -4.05167       -0.74820        0.35631
B         -1.16741       -2.45311        0.60164
B         -1.14005        2.61539        0.58556
B          3.22013        0.15763        0.62335
B         -1.13408       -0.72832        0.73922
B          4.43791        2.41464       -0.52101
B         -5.29166        1.83084       -0.61389
B         -5.29787        0.20044       -0.37478
B         -5.31035       -1.63142       -0.60290
B         -6.46978       -0.67227       -1.20955
B         -6.46140        0.88043       -1.21448
B          1.74054       -0.75677        0.82827
B         -0.82213       -2.20643       -0.92326
B          0.30552        1.79928        0.88436
B          5.94290        1.69479       -0.73110
B          6.12879       -0.01968       -0.79043
B          5.92168       -1.74857       -0.79078
B         -0.84653       -0.93463        1.58458
