45
isomer_1527.log	Energy: -110498.4380944
B         -2.60097       -1.62244       -0.39309
B         -2.59422       -3.25777       -0.00160
B         -1.18816       -4.08885        0.24151
B          0.26804       -3.26326       -0.32019
B         -1.14106       -0.73553       -0.71080
B          1.73324       -0.77124       -0.80722
B          1.65951       -4.04662        0.36865
B         -4.05764       -0.74501       -0.31992
B          1.65316       -2.37146       -0.23509
B         -3.99950       -2.43388        0.14844
B          0.23395       -4.70646        0.51830
B          3.09308       -3.20234        0.37154
B          3.12046       -1.58494       -0.20633
B          4.58366       -0.77155        0.27895
B          0.30365        1.78725       -0.88594
B          1.68999        2.48401       -0.27003
B          3.14519        1.67582       -0.22980
B          4.59594        0.84740        0.26730
B          4.44114        2.40799        0.50195
B          3.14242        3.30159        0.32474
B          1.72182        4.16739        0.30955
B          0.31855        3.39540       -0.36810
B          0.30645        4.85087        0.44953
B         -2.54343        3.43791       -0.04978
B         -1.12490        4.25099        0.18150
B         -2.57503        1.79741       -0.41770
B         -3.96103        2.63768        0.11195
B         -4.04484        0.94332       -0.33206
B         -1.13933        2.60960       -0.59175
B         -1.17778       -2.45873       -0.55528
B          3.21385       -0.05803       -0.61429
B         -1.12877        0.88398       -0.72245
B          4.40523       -2.32608        0.53601
B         -5.31565       -1.61548        0.65175
B         -5.30132        0.01390        0.40608
B         -5.28939        1.84667        0.62683
B         -6.45958        0.90510        1.24036
B         -6.47135       -0.64754        1.25153
B          1.74573        0.87470       -0.81906
B         -1.80015       -0.65536       -1.10409
B          0.27748       -1.66269       -0.86111
B          5.92000       -1.62503        0.73930
B          6.12829        0.08710        0.79123
B          5.94367        1.81853        0.78513
B          0.26962       -2.37432       -0.28646
