45
isomer_1528.log	Energy: -112424.3361958
B          2.60777        1.68021       -0.48327
B          2.60485        3.32218       -0.10406
B          1.20420        4.15607        0.13527
B         -0.25458        3.33578       -0.40730
B          1.15706        0.80210       -0.78954
B         -1.73744        0.84370       -0.85561
B         -1.63678        4.12783        0.28266
B          4.05207        0.80687       -0.40717
B         -1.64562        2.45081       -0.30308
B          3.99878        2.49476        0.04446
B         -0.21079        4.77424        0.41419
B         -3.07249        3.29076        0.30569
B         -3.11441        1.66991       -0.25220
B         -4.57883        0.86381        0.25188
B         -0.32516       -1.73633       -0.92475
B         -1.70865       -2.41668       -0.27942
B         -3.15399       -1.60057       -0.23689
B         -4.59462       -0.75820        0.25818
B         -4.44989       -2.32076        0.51643
B         -3.14633       -3.22104        0.33691
B         -1.72795       -4.08822        0.32177
B         -0.32985       -3.32897       -0.38086
B         -0.31320       -4.76046        0.45088
B          2.53706       -3.36209       -0.08490
B          1.11778       -4.17149        0.16419
B          2.58067       -1.72287       -0.47075
B          3.95647       -2.55870        0.05870
B          4.03822       -0.87989       -0.40132
B          1.13865       -2.54386       -0.62427
B          1.19044        2.52220       -0.64386
B         -3.21853        0.13285       -0.64192
B          1.15651       -0.80025       -0.77697
B         -4.39804        2.42608        0.49441
B          5.31254        1.68233        0.54816
B          5.29357        0.05107        0.31797
B          5.28100       -1.76551        0.55560
B          6.44497       -0.82555        1.15158
B          6.46417        0.72148        1.15029
B         -1.75948       -0.80230       -0.84688
B          1.47087        0.70326        1.20322
B         -0.27147        1.72947       -0.93413
B         -5.89539        1.71493        0.71189
B         -6.10490        0.02040        0.78150
B         -5.92900       -1.69636        0.79483
B         -0.03027       -0.96299       -0.40151
