45
isomer_1529.log	Energy: -113666.2331879
B          2.50224       -1.74316        0.37559
B          2.43696       -3.34418       -0.08055
B          1.03999       -4.13191       -0.19508
B         -0.36320       -3.37643        0.46742
B          1.12699       -0.87582        0.89492
B         -1.77877       -0.83795        0.93315
B         -1.76281       -4.11517       -0.29439
B          3.97801       -0.92759        0.27240
B         -1.80619       -2.50320        0.45521
B          3.83320       -2.54830       -0.28867
B         -0.36016       -4.71052       -0.43368
B         -3.11654       -3.26715       -0.26465
B         -3.19232       -1.68761        0.28060
B         -4.56524       -0.79426       -0.15934
B         -0.31729        1.81866        1.05154
B         -1.71776        2.52831        0.37154
B         -3.14393        1.74490        0.24004
B         -4.55903        0.89132       -0.10319
B         -4.37944        2.50174       -0.70930
B         -3.02271        3.33699       -0.28378
B         -1.64201        4.14965       -0.31740
B         -0.26873        3.38680        0.46784
B         -0.21427        4.71724       -0.43872
B          2.55009        3.31307       -0.04106
B          1.17413        4.13711       -0.15895
B          2.57291        1.71197        0.47214
B          3.92087        2.48474       -0.22972
B          4.01783        0.84692        0.29436
B          1.19877        2.59714        0.72557
B          1.12073       -2.60202        0.70989
B         -3.31142        0.01537        0.64287
B          1.15856        0.88566        0.90051
B         -4.46753       -2.43638       -0.68107
B          5.11597       -1.74677       -0.78266
B          5.21207       -0.05562       -0.46105
B          5.16984        1.64635       -0.73916
B          6.22413        0.69473       -1.44017
B          6.20441       -0.82036       -1.45232
B         -1.74934        0.83118        0.79035
B          2.59678       -0.01684        0.76275
B         -0.36531       -1.82180        1.13493
B         -5.55497       -1.51118       -1.18650
B         -5.70195        0.04133       -1.19136
B         -5.46245        1.58148       -1.22793
B         -0.33112        0.01152        0.91707
