45
isomer_1532.log	Energy: -112567.0855902
B          2.61836       -1.60146        0.34379
B          2.62176       -3.23931       -0.06606
B          1.21635       -4.07892       -0.31022
B         -0.24807       -3.27341        0.26215
B          1.16806       -0.70908        0.67039
B         -1.73230       -0.79151        0.78449
B         -1.63258       -4.05967       -0.42686
B          4.05333       -0.72054        0.28042
B         -1.65053       -2.39293        0.19221
B          4.00373       -2.40436       -0.20553
B         -0.19774       -4.69541       -0.58406
B         -3.07382       -3.22627       -0.41675
B         -3.11524       -1.61455        0.17652
B         -4.58379       -0.80198       -0.29341
B         -0.30746        1.77378        0.88038
B         -1.70471        2.46867        0.27635
B         -3.15435        1.65294        0.23333
B         -4.60214        0.82030       -0.26481
B         -4.46003        2.38714       -0.48989
B         -3.15524        3.28059       -0.30498
B         -1.74032        4.15276       -0.28645
B         -0.33344        3.38569        0.37755
B         -0.32999        4.83528       -0.42151
B          2.52441        3.44410        0.05250
B          1.10088        4.24872       -0.16583
B          2.56713        1.80314        0.40549
B          3.94026        2.64928       -0.11944
B          4.03211        0.96401        0.30829
B          1.13133        2.60623        0.58935
B          1.20297       -2.45547        0.49571
B         -3.21422       -0.08321        0.60068
B          1.13391        0.88778        0.70323
B         -4.40643       -2.35910       -0.57093
B          5.31127       -1.57227       -0.69837
B          5.28562        0.05348       -0.43687
B          5.26381        1.87320       -0.64024
B          6.42851        0.95255       -1.25969
B          6.45356       -0.59404       -1.28823
B         -1.75059        0.85363        0.81153
B          1.35280       -1.68174        2.40424
B         -0.27761       -1.67445        0.82482
B         -5.90386       -1.64637       -0.75513
B         -6.11510        0.05436       -0.78721
B         -5.94192        1.76353       -0.76548
B          0.22132       -1.23511       -0.11547
