45
isomer_1533.log	Energy: -113339.9086876
B         -2.89580       -1.06667       -1.19826
B         -2.63685       -2.76998       -0.72641
B         -1.77338       -4.00101       -0.10427
B         -0.26770       -3.24607       -0.16136
B         -1.37394       -0.38870       -1.41209
B          1.48724       -1.00747       -0.95305
B          0.74201       -3.81779        1.07978
B         -4.06667       -0.25736       -0.46628
B          1.14770       -2.42008       -0.00244
B         -3.90911       -1.86608       -0.11660
B         -0.65369       -4.36172        0.95136
B          2.23507       -3.20354        0.98892
B          2.66497       -1.88504        0.11019
B          4.17938       -1.20138        0.45825
B          0.51362        1.79900       -1.01271
B          2.04857        2.34301       -0.68179
B          3.34483        1.35763       -0.39633
B          4.66443        0.25758       -0.20624
B          4.71042        1.99268        0.33107
B          3.50322        2.96385       -0.00118
B          2.23920        3.96438        0.12840
B          0.74185        3.34239       -0.39477
B          0.92726        4.69697        0.40491
B         -2.02777        3.59901        0.28385
B         -0.58278        4.25154        0.30008
B         -2.34544        1.99094       -0.39693
B         -3.39974        2.82465        0.61270
B         -3.81150        1.35840       -0.10698
B         -0.87527        2.75383       -0.48661
B         -1.22057       -3.24481       -1.48722
B          3.16647       -0.38728       -0.64508
B         -1.07390        1.13445       -1.07056
B          3.77856       -2.67352        1.22646
B         -5.02676       -1.24051        0.73169
B         -4.98345        0.49077        0.73233
B         -4.49996        1.99173        1.38118
B         -5.47999        1.00375        2.15933
B         -5.79321       -0.40751        1.82229
B          1.80515        0.66715       -0.88832
B         -1.69682       -1.83490       -1.96819
B         -0.04501       -1.81096       -1.25859
B          5.11221       -2.03071        1.47238
B          5.61310       -0.59361        1.15189
B          5.63338        0.91009        0.89645
B          0.18068        0.02291       -1.08123
