45
isomer_1534.log	Energy: -111346.3104985
B          2.58294        1.78637       -0.46806
B          2.55969        3.41928       -0.06952
B          1.14470        4.23307        0.18336
B         -0.30449        3.39681       -0.37058
B          1.13936        0.89935       -0.77816
B         -1.75890        0.88348       -0.85497
B         -1.69904        4.15839        0.32814
B          4.04165        0.92042       -0.40850
B         -1.68447        2.48839       -0.27956
B          3.97060        2.60347        0.06728
B         -0.27850        4.82715        0.46941
B         -3.12495        3.30030        0.33981
B         -3.14691        1.68611       -0.23999
B         -4.60009        0.85537        0.25441
B         -0.33325       -1.66403       -0.95236
B         -1.69489       -2.37808       -0.32399
B         -3.15028       -1.58173       -0.26956
B         -4.59921       -0.76551        0.23956
B         -4.43570       -2.32768        0.47334
B         -3.12512       -3.20865        0.28203
B         -1.69680       -4.05870        0.25320
B         -0.30577       -3.27528       -0.43599
B         -0.27285       -4.72025        0.37525
B          2.56790       -3.28068       -0.14130
B          1.15476       -4.11180        0.09746
B          2.59548       -1.63118       -0.50205
B          3.98376       -2.46046        0.01214
B          4.04622       -0.76999       -0.42643
B          1.15886       -2.47277       -0.66859
B          1.15345        2.61012       -0.61705
B         -3.23388        0.15348       -0.65009
B          1.16066       -0.69547       -0.79356
B         -4.43631        2.41645        0.51651
B          5.29417        1.79723        0.55773
B          5.29354        0.16715        0.30535
B          5.30015       -1.65926        0.51807
B          6.45887       -0.70899        1.12484
B          6.45939        0.83659        1.14415
B         -1.76297       -0.76726       -0.87048
B          1.20894       -1.48340        1.97709
B         -0.29771        1.79963       -0.91641
B         -5.92928        1.68764        0.72612
B         -6.12025       -0.01327        0.77419
B         -5.92595       -1.73016        0.76397
B          0.64246       -1.16163       -0.74621
