45
isomer_1536.log	Energy: -113402.1574701
B         -2.68689        1.55094        0.70042
B         -2.65808        3.15507        0.08085
B         -1.35433        4.04553       -0.15101
B          0.15355        3.33923        0.33352
B         -1.16768        0.79533        1.12167
B          1.65908        0.82222        0.63457
B          1.43656        4.09632       -0.52629
B         -4.07669        0.68465        0.46450
B          1.58299        2.49918        0.17916
B         -4.03426        2.27115       -0.02533
B          0.01208        4.66643       -0.54001
B          2.87799        3.29429       -0.50159
B          3.06051        1.77482        0.09847
B          4.55335        0.96022       -0.03964
B          0.32842       -1.70242        0.89225
B          1.78744       -2.47237        0.61145
B          3.21506       -1.66936        0.44602
B          4.51489       -0.70128       -0.12433
B          4.49720       -2.38178       -0.48757
B          3.11550       -3.18793       -0.12477
B          1.76065       -4.09076       -0.22061
B          0.35820       -3.28818        0.32289
B          0.38046       -4.67935       -0.46303
B         -2.42744       -3.27095       -0.25205
B         -1.04680       -4.07887       -0.34341
B         -2.55566       -1.64307        0.29048
B         -3.83448       -2.44760       -0.46459
B         -4.00669       -0.96724        0.29795
B         -1.15910       -2.48875        0.35639
B         -1.32783        2.49661        0.68260
B          3.25205        0.09582        0.64602
B         -1.10816       -0.74284        0.65061
B          4.29279        2.52144       -0.81879
B         -5.33092        1.55391       -0.49858
B         -5.32756       -0.13606       -0.32485
B         -5.17535       -1.75983       -0.84294
B         -6.37954       -0.85100       -1.32012
B         -6.43832        0.63376       -1.18582
B          1.73038       -0.74908        1.06129
B          0.27095        0.02630        1.72334
B          0.23969        1.75746        0.93328
B          5.42971        1.60900       -1.21214
B          5.72380        0.08040       -1.07706
B          5.61065       -1.47330       -0.97777
B          0.25180        0.05197       -0.00542
