45
isomer_1537.log	Energy: -112412.9635443
B          2.72743       -1.67644        0.38034
B          2.69545       -3.32200       -0.02380
B          1.28965       -4.14918       -0.25960
B         -0.17805       -3.37229        0.28408
B          1.35796       -0.80613        0.70251
B         -1.76080       -0.80327        0.79692
B         -1.57734       -4.13218       -0.38600
B          4.12480       -0.78704        0.30227
B         -1.64328       -2.48165        0.19648
B          4.07671       -2.45193       -0.16885
B         -0.14274       -4.72729       -0.52605
B         -3.02928       -3.30765       -0.39416
B         -3.12116       -1.68032        0.17128
B         -4.58156       -0.85794       -0.31360
B         -0.46629        1.78105        0.88828
B         -1.81494        2.46200        0.22040
B         -3.21313        1.63266        0.18158
B         -4.62468        0.76516       -0.30502
B         -4.53226        2.34423       -0.59216
B         -3.20215        3.25331       -0.40291
B         -1.78292        4.10181       -0.38373
B         -0.36899        3.37475        0.33168
B         -0.34023        4.72654       -0.48168
B          2.55464        3.38094        0.03669
B          1.12106        4.18431       -0.19915
B          2.71519        1.70231        0.40745
B          4.01712        2.55468       -0.13121
B          4.10636        0.91230        0.31599
B          1.22604        2.57483        0.57660
B          1.33898       -2.55590        0.52208
B         -3.25834       -0.10428        0.58073
B          1.42660        0.65104        0.69576
B         -4.42539       -2.45174       -0.58992
B          5.35147       -1.63570       -0.67807
B          5.32794        0.00616       -0.42894
B          5.29633        1.78883       -0.64296
B          6.42241        0.85698       -1.25646
B          6.47269       -0.63816       -1.28228
B         -1.82262        0.86256        0.79698
B          0.35159        1.21504        0.95932
B         -0.20158       -1.76936        0.82502
B         -5.84070       -1.67634       -0.77003
B         -6.05276       -0.03559       -0.82469
B         -5.90303        1.57198       -0.83827
B         -0.11622       -1.28110        1.70709
