45
isomer_1538.log	Energy: -112923.1727486
B          2.60489       -1.67613        0.41317
B          2.59375       -3.31406        0.03225
B          1.19988       -4.14222       -0.20566
B         -0.25250       -3.31718        0.34316
B          1.14454       -0.79482        0.72672
B         -1.70836       -0.81481        0.80884
B         -1.63901       -4.09894       -0.34219
B          4.04785       -0.80834        0.33371
B         -1.63731       -2.42453        0.24782
B          3.98745       -2.48852       -0.11885
B         -0.22027       -4.74983       -0.47936
B         -3.06595       -3.25304       -0.35546
B         -3.09573       -1.63492        0.20819
B         -4.55459       -0.81553       -0.28331
B         -0.27925        1.72057        0.87280
B         -1.65908        2.42656        0.24904
B         -3.10973        1.62655        0.21038
B         -4.55869        0.79948       -0.28151
B         -4.40749        2.36216       -0.53310
B         -3.09505        3.24325       -0.35391
B         -1.67551        4.10016       -0.34228
B         -0.28367        3.32947        0.34216
B         -0.26261        4.76288       -0.48028
B          2.56362        3.35719        0.02974
B          1.16294        4.16837       -0.20804
B          2.58944        1.71891        0.40790
B          3.96773        2.54744       -0.12535
B          4.04176        0.87515        0.33252
B          1.16606        2.53902        0.57301
B          1.19006       -2.51561        0.57602
B         -3.18623       -0.09777        0.60473
B          1.13973        0.81471        0.71546
B         -4.39208       -2.38026       -0.53568
B          5.29874       -1.68385       -0.62722
B          5.28793       -0.05369       -0.39413
B          5.28150        1.75784       -0.62673
B          6.43736        0.81715       -1.22794
B          6.45143       -0.72313       -1.23155
B         -1.71625        0.82470        0.80896
B          0.46289        0.04112        1.99984
B         -0.25982       -1.70720        0.87550
B         -5.87008       -1.65031       -0.73890
B         -6.06814        0.03910       -0.79993
B         -5.87892        1.73757       -0.80341
B          0.25680       -0.46468       -0.61710
