45
isomer_1539.log	Energy: -113417.2851828
B          2.57007       -1.22620        0.46050
B          2.75625       -3.16795        0.08540
B          1.46366       -4.00453       -0.05788
B         -0.04434       -3.18331        0.02896
B          1.22203       -0.49175       -0.23958
B         -1.68129       -0.80792        0.62222
B         -1.38549       -4.14180       -0.31962
B          4.09478       -0.70219        0.36164
B         -1.57003       -2.42935        0.04125
B          3.99767       -2.28186        0.09841
B          0.04486       -4.71673       -0.25462
B         -2.85961       -3.36517       -0.39958
B         -3.07887       -1.84728        0.21409
B         -4.57921       -1.05269        0.06340
B         -0.39722        1.76966        1.05496
B         -1.87964        2.44132        0.58270
B         -3.27817        1.61021        0.44323
B         -4.53977        0.61684       -0.17549
B         -4.60496        2.30036       -0.46511
B         -3.24011        3.14542       -0.11457
B         -1.90004        4.05588       -0.20038
B         -0.45836        3.32277        0.46794
B         -0.54261        4.65104       -0.45435
B          2.29118        3.28723       -0.36016
B          0.89249        4.07385       -0.36442
B          2.39508        1.63832        0.15725
B          3.69163        2.50739       -0.50373
B          3.90795        1.01693        0.04931
B          1.06225        2.58935        0.49664
B          1.36368       -2.35987        0.59175
B         -3.27900       -0.13413        0.65747
B          1.10715        0.82739        0.71541
B         -4.29633       -2.62398       -0.69370
B          5.40032       -1.46059       -0.29859
B          5.34774        0.22651       -0.11578
B          5.14748        1.77937       -0.80393
B          6.35369        0.88698       -1.22877
B          6.48423       -0.57366       -0.99712
B         -1.83336        0.74673        1.06450
B         -0.24397       -0.02333        1.30095
B         -0.11601       -1.46068        0.15521
B         -5.40637       -1.70391       -1.15103
B         -5.77284       -0.19886       -1.04030
B         -5.71337        1.36109       -0.94223
B          1.10676       -0.89688        1.46769
