45
isomer_0154.log	Energy: -113467.9676047
B         -2.67247       -1.49411       -0.69633
B         -2.82517       -3.07579        0.62740
B         -1.54013       -3.90682        0.08175
B          0.04444       -3.22604       -0.38834
B         -1.06027       -0.64584       -0.95374
B          1.72289       -0.87435       -0.87532
B          1.27381       -4.03284        0.48157
B         -3.94204       -0.47578       -0.27683
B          1.51777       -2.43590       -0.18879
B         -4.00202       -2.17769        0.20073
B         -0.18001       -4.54546        0.47714
B          2.74034       -3.34125        0.50372
B          3.02185       -1.84958       -0.12617
B          4.49569       -1.06985        0.24758
B          0.56970        1.69006       -0.87793
B          2.07786        2.39610       -0.53838
B          3.45851        1.50466       -0.39233
B          4.81734        0.51356       -0.18156
B          4.79502        2.18847        0.41221
B          3.49718        3.08865        0.06898
B          2.18398        4.01941        0.18519
B          0.70483        3.35927       -0.39891
B          0.83078        4.71073        0.43052
B         -2.08907        3.50885        0.19886
B         -0.61807        4.21909        0.26073
B         -2.31749        2.00520       -0.42543
B         -3.57311        2.85301        0.38559
B         -3.77153        1.23473       -0.08385
B         -0.82294        2.63142       -0.47398
B         -1.28256       -2.38721       -1.05633
B          3.34319       -0.20015       -0.66800
B         -0.93120        0.94302       -0.90327
B          4.19948       -2.64907        0.85188
B         -5.28514       -1.23005        0.54502
B         -5.22734        0.46331        0.25814
B         -4.92491        2.15156        0.80023
B         -6.03370        1.25356        1.42246
B         -6.23046       -0.25188        1.29111
B          1.87915        0.72434       -0.80337
B         -2.72132       -3.12897       -0.93542
B          0.26301       -1.62812       -1.03021
B          5.46751       -1.88314        1.20267
B          5.84097       -0.37323        1.05249
B          5.77175        1.15743        0.94750
B         -2.46610        0.26670       -0.65897
