45
isomer_1540.log	Energy: -113466.8398754
B         -2.74731        1.53910        0.74691
B         -2.76628        3.18835        0.07561
B         -1.44350        4.01453       -0.10206
B          0.11540        3.33409        0.53603
B         -1.30227        0.78963        0.92420
B          1.51298        0.68960        0.15872
B          1.39943        4.09489       -0.40986
B         -4.04145        0.71179        0.28529
B          1.48678        2.45609        0.10017
B         -4.13338        2.33292        0.06266
B         -0.04615        4.57947       -0.45439
B          2.82497        3.33372       -0.41614
B          2.93813        1.71311       -0.06182
B          4.50065        1.04772        0.14302
B          0.37459       -1.71529        1.24466
B          1.62611       -2.17004       -0.03899
B          3.20995       -1.60717        0.41631
B          4.52897       -0.62133       -0.11710
B          4.52326       -2.29874       -0.49908
B          3.14996       -3.08113       -0.24256
B          1.81438       -3.92261       -0.17060
B          0.43957       -3.29683        0.69712
B          0.43548       -4.52707       -0.34486
B         -2.37779       -3.30820       -0.19439
B         -1.01999       -4.07124       -0.15674
B         -2.42528       -1.59138        0.13032
B         -3.73809       -2.44727       -0.46804
B         -3.88920       -0.93904        0.13152
B         -1.06386       -2.51774        0.42057
B         -1.36528        2.44117        0.48213
B          3.20297        0.13580        0.66895
B         -0.97518       -0.76536        0.32988
B          4.25360        2.59669       -0.67761
B         -5.41444        1.53233       -0.40403
B         -5.38377       -0.18526       -0.13751
B         -5.18795       -1.77679       -0.70279
B         -6.41811       -0.93825       -1.14094
B         -6.43473        0.55710       -1.11425
B          1.82022       -0.76526        1.14355
B          0.24021        0.02945        1.27433
B          0.17532        1.71206        0.91718
B          5.42827        1.69851       -0.98093
B          5.79146        0.17526       -0.88486
B          5.71150       -1.36851       -0.84272
B          0.66986       -0.78886       -0.32687
