45
isomer_1541.log	Energy: -113473.5805546
B         -2.63836       -1.40846       -0.54152
B         -2.82485       -3.08802       -0.41039
B         -1.66450       -3.93866        0.16255
B         -0.06281       -3.15209       -0.34196
B         -1.07356       -0.85402       -0.29865
B          1.75378       -0.93741       -1.07860
B          1.16178       -3.71588        0.80044
B         -4.03109       -0.50792       -0.48034
B          1.53059       -2.48313       -0.31938
B         -4.14784       -2.11512       -0.17222
B         -0.38833       -3.97675        1.00736
B          2.65670       -3.24448        0.61625
B          3.00113       -1.80333       -0.20123
B          4.40205       -1.00176        0.24753
B          0.44675        1.66148       -0.77537
B          1.97020        2.39797       -0.55264
B          3.39439        1.55625       -0.50962
B          4.77725        0.54419       -0.31489
B          4.68852        2.24524        0.29895
B          3.40295        3.13547        0.04730
B          2.03563        3.98134        0.22435
B          0.56420        3.30290       -0.34659
B          0.65752        4.57351        0.58819
B         -2.23990        3.39334        0.31374
B         -0.83173        4.09366        0.43215
B         -2.41766        1.74460       -0.30933
B         -3.67421        2.61239        0.44268
B         -3.90122        1.16363       -0.34825
B         -0.95794        2.49560       -0.12444
B         -1.38510       -2.30662        0.55184
B          3.35115       -0.20558       -0.82747
B         -1.04132        0.81170       -0.49164
B          4.15782       -2.56276        0.88320
B         -5.36776       -1.30108        0.34581
B         -5.30371        0.39969        0.14790
B         -5.10930        2.01570        0.66824
B         -6.37126        1.16587        1.08025
B         -6.45754       -0.31863        0.99139
B          1.88866        0.76165       -0.88607
B         -1.38906       -2.43587       -1.25613
B          0.18742       -1.74980       -1.24421
B          5.42826       -1.81786        1.16919
B          5.81016       -0.29775        0.93956
B          5.70381        1.20535        0.81896
B          0.30834       -0.03855       -0.94688
