45
isomer_1542.log	Energy: -113344.0916200
B          2.44512        1.70912       -0.30284
B          2.40203        3.40253        0.10592
B          1.03178        4.12675        0.32668
B         -0.41731        3.35120       -0.33353
B          0.98702        0.85742       -0.50633
B         -1.77239        0.80906       -0.94687
B         -1.80250        4.01500        0.39975
B          3.88883        1.00094       -0.31721
B         -1.83759        2.44347       -0.38926
B          3.80542        2.63400        0.08890
B         -0.40699        4.62166        0.62190
B         -3.19924        3.17666        0.26771
B         -3.25666        1.66533       -0.33705
B         -4.60660        0.70396        0.05257
B         -0.30288       -1.48292       -0.85279
B         -1.71845       -2.43636       -0.59957
B         -3.22090       -1.74962       -0.52873
B         -4.68417       -0.92309       -0.26952
B         -4.42846       -2.46458        0.48529
B         -2.97028       -3.17139        0.25167
B         -1.49518       -3.70369        0.57032
B         -0.17490       -3.23333       -0.55797
B         -0.05159       -3.84207        1.03291
B          2.81774       -3.22448       -0.07500
B          1.38074       -3.66934        0.39959
B          2.64644       -1.43565       -0.91142
B          3.83674       -2.11822        0.24477
B          4.01936       -0.63942       -0.61741
B          1.30867       -2.41938       -0.98305
B          1.06141        2.53927       -0.42524
B         -3.31679       -0.03041       -0.76749
B          1.10614       -0.72771       -0.27987
B         -4.60843        2.35727        0.49574
B          5.15534        1.87541        0.47141
B          5.34908        0.26613       -0.16700
B          5.29932       -1.33182        0.32958
B          6.44495       -0.52062        0.87952
B          6.22935        0.92114        1.06460
B         -1.77582       -0.76833       -0.99044
B          2.08736       -1.90080        0.70234
B         -0.37357        1.69298       -0.86196
B         -5.79570        1.45025        0.81873
B         -5.93041       -0.09915        0.81262
B         -5.59112       -1.59495        0.90011
B          0.43511       -2.13223        0.69790
