45
isomer_1543.log	Energy: -113458.1756357
B         -2.54182        1.67371        0.63584
B         -2.51927        3.39324        0.04453
B         -1.16569        4.15212       -0.02420
B          0.29359        3.44064        0.66852
B         -1.19935        0.94981        1.08005
B          1.75040        0.91742        0.97396
B          1.67453        4.15309       -0.19297
B         -3.90610        0.92888        0.15448
B          1.72541        2.56802        0.48133
B         -3.77538        2.52095       -0.22765
B          0.25167        4.70113       -0.31683
B          3.03951        3.31296       -0.25680
B          3.09529        1.73319        0.22473
B          4.35880        0.76802       -0.40456
B          0.28040       -1.72709        1.44975
B          1.38761       -2.41496        0.02543
B          2.98495       -1.73042        0.08259
B          4.45638       -0.88711       -0.10636
B          4.19637       -2.52237       -0.77242
B          2.85281       -3.29538       -0.32335
B          1.53249       -4.14486       -0.01843
B          0.22008       -3.32694        0.93713
B          0.15806       -4.71449        0.08012
B         -2.54812       -3.30666       -0.01499
B         -1.24873       -4.11767        0.20075
B         -2.58736       -1.59184        0.45128
B         -3.83286       -2.44486       -0.27122
B         -3.91225       -0.83846        0.13173
B         -1.10857       -2.40125        0.28798
B         -1.18525        2.58284        0.72323
B          3.13917       -0.01785        0.47963
B         -1.22274       -0.71568        0.78013
B          4.35531        2.44651       -0.75415
B         -5.07574        1.70275       -0.79170
B         -5.15512        0.05386       -0.45131
B         -5.13307       -1.59661       -0.84950
B         -6.12940       -0.68708       -1.55917
B         -6.10512        0.80911       -1.54821
B          1.56855       -0.75298        0.49849
B          0.24216        0.00183        1.26350
B          0.33499        1.81917        1.21490
B          5.45559        1.51516       -1.24785
B          5.59169       -0.06627       -1.24538
B          5.31904       -1.58746       -1.24706
B          0.08708       -1.25612       -0.24595
