45
isomer_1544.log	Energy: -113675.8239699
B          2.53214        1.74908       -0.50400
B          2.46194        3.31853        0.04357
B          1.09024        4.15265        0.12467
B         -0.31619        3.39264       -0.52080
B          1.14710        0.84790       -1.05882
B         -1.75325        0.83566       -0.86634
B         -1.70389        4.15175        0.25789
B          3.96828        0.88262       -0.21928
B         -1.77189        2.54004       -0.46776
B          3.83605        2.51541        0.28562
B         -0.29237        4.74604        0.35977
B         -3.05633        3.30074        0.27454
B         -3.15597        1.70044       -0.24664
B         -4.54122        0.83794        0.19600
B         -0.33418       -1.83200       -1.10162
B         -1.75808       -2.54325       -0.45763
B         -3.14816       -1.70994       -0.23994
B         -4.54352       -0.85477        0.18085
B         -4.36218       -2.47444        0.76308
B         -3.04180       -3.31136        0.27650
B         -1.68491       -4.15615        0.26033
B         -0.30146       -3.39558       -0.52411
B         -0.27072       -4.74644        0.36019
B          2.47717       -3.31329        0.04282
B          1.10951       -4.15132        0.12237
B          2.54184       -1.74395       -0.51136
B          3.84688       -2.50624        0.28225
B          3.97320       -0.87089       -0.22078
B          1.15813       -2.58242       -0.78002
B          1.14635        2.58458       -0.77563
B         -3.29533       -0.00283       -0.60857
B          1.15422       -0.84830       -1.06316
B         -4.37619        2.46469        0.75934
B          5.08141        1.70335        0.85530
B          5.19760        0.00800        0.52103
B          5.08968       -1.68789        0.85120
B          6.09781       -0.75136        1.60726
B          6.09447        0.77051        1.60831
B         -1.74199       -0.83810       -0.84651
B          2.60990        0.00262       -0.74408
B         -0.34408        1.83097       -1.10670
B         -5.43636        1.54101        1.31662
B         -5.62195       -0.00585        1.30235
B         -5.41928       -1.55007        1.32320
B         -0.34266       -0.00077       -1.11133
