45
isomer_1545.log	Energy: -113675.8869066
B         -2.50948        1.75947        0.48851
B         -2.42819        3.33442       -0.04000
B         -1.04837        4.15708       -0.12304
B          0.35033        3.38496        0.51480
B         -1.13009        0.84859        1.04218
B          1.78570        0.83052        0.91052
B          1.74719        4.14442       -0.24626
B         -3.95664        0.90992        0.21601
B          1.80141        2.53278        0.48821
B         -3.81035        2.53677       -0.29246
B          0.34070        4.74584       -0.35202
B          3.09114        3.28085       -0.26640
B          3.17295        1.68074        0.25977
B          4.53227        0.79853       -0.23694
B          0.31327       -1.83083        1.08798
B          1.72505       -2.55113        0.43111
B          3.12925       -1.73289        0.22111
B          4.54676       -0.89336       -0.14585
B          4.32697       -2.49897       -0.77062
B          3.00901       -3.33985       -0.27892
B          1.64267       -4.16947       -0.25852
B          0.26958       -3.40287        0.53878
B          0.22075       -4.74805       -0.35307
B         -2.51280       -3.30395       -0.03702
B         -1.15579       -4.14915       -0.10920
B         -2.56264       -1.73079        0.52997
B         -3.86902       -2.48550       -0.27625
B         -3.98385       -0.84593        0.22445
B         -1.18529       -2.57776        0.78902
B         -1.11981        2.58983        0.76524
B          3.29360       -0.01572        0.60916
B         -1.16984       -0.85084        1.06858
B          4.40627        2.44482       -0.74958
B         -5.06119        1.73815       -0.86428
B         -5.19528        0.04377       -0.52320
B         -5.10385       -1.65241       -0.84590
B         -6.10426       -0.70747       -1.60613
B         -6.08467        0.81325       -1.61271
B          1.71829       -0.84341        0.78976
B         -2.60979        0.01585        0.74604
B          0.36865        1.82536        1.11713
B          5.47250        1.51904       -1.30193
B          5.62001       -0.03274       -1.30467
B          5.37402       -1.56910       -1.33805
B          0.34282       -0.00276        1.09470
