45
isomer_1546.log	Energy: -112326.7873344
B         -2.58319        1.76729        0.40222
B         -2.55663        3.41142        0.05046
B         -1.14050        4.23177       -0.16954
B          0.30474        3.37599        0.37501
B         -1.13438        0.85607        0.70137
B          1.73991        0.85608        0.80458
B          1.70679        4.15958       -0.29178
B         -4.04973        0.90884        0.30480
B          1.67966        2.47048        0.27121
B         -3.97098        2.60776       -0.12240
B          0.28930        4.83934       -0.42835
B          3.13051        3.29903       -0.31213
B          3.13784        1.66792        0.22645
B          4.59269        0.84958       -0.27535
B          0.28067       -1.68681        0.81836
B          1.66032       -2.38450        0.18864
B          3.12485       -1.59253        0.17100
B          4.58624       -0.76921       -0.30288
B          4.41397       -2.32177       -0.57557
B          3.10460       -3.20426       -0.42274
B          1.67406       -4.05363       -0.43147
B          0.27821       -3.28203        0.26177
B          0.25122       -4.71705       -0.59089
B         -2.58331       -3.28361       -0.06341
B         -1.17373       -4.10726       -0.31138
B         -2.59682       -1.65223        0.34406
B         -3.99119       -2.46329       -0.20865
B         -4.05646       -0.77931        0.27609
B         -1.17101       -2.48500        0.50136
B         -1.15082        2.58284        0.58756
B          3.21263        0.13061        0.59751
B         -1.14083       -0.76328        0.67383
B          4.43283        2.41184       -0.49506
B         -5.29532        1.81711       -0.64810
B         -5.30038        0.18221       -0.44194
B         -5.30911       -1.64470       -0.70698
B         -6.46689       -0.67505       -1.29995
B         -6.46070        0.87744       -1.27354
B          1.73335       -0.78970        0.77659
B         -1.22202       -1.78808        2.43255
B          0.29442        1.76279        0.87704
B          5.93987        1.69838       -0.71213
B          6.12850       -0.01430       -0.80507
B          5.92387       -1.74310       -0.84129
B         -0.26706       -0.56367        0.08818
