45
isomer_1547.log	Energy: -113462.3594785
B          2.82949        1.26903       -0.70498
B          2.95559        3.01086       -0.12679
B          1.68013        3.83461        0.25073
B          0.17094        3.13202        0.03476
B          1.36270        0.58464       -1.02057
B         -1.54645        0.83598       -0.55653
B         -1.14969        4.02457        0.63336
B          4.24058        0.59332       -0.64530
B         -1.39030        2.44785       -0.00163
B          4.22867        2.18166       -0.26038
B          0.32576        4.56748        0.60694
B         -2.65501        3.39434        0.48805
B         -2.92838        1.87996       -0.17562
B         -4.48167        1.27829       -0.29593
B         -0.46876       -1.76449       -1.19563
B         -2.03617       -2.43572       -0.58603
B         -3.31071       -1.42716       -0.32146
B         -4.64419       -0.37196       -0.04465
B         -4.78116       -2.07912        0.25934
B         -3.51762       -3.03166       -0.01491
B         -2.16024       -3.80344        0.41137
B         -0.55893       -3.23811       -0.33716
B         -0.88848       -3.90786        1.13476
B          1.99088       -2.79659        0.69945
B          0.53367       -3.25513        0.99286
B          2.36649       -1.73966       -0.57186
B          3.50488       -2.35178        0.56756
B          3.89288       -1.05406       -0.30520
B          0.97944       -2.79905       -0.86979
B          1.51953        2.22057       -0.57650
B         -3.19018        0.26706       -0.76111
B          1.12296       -1.01283       -1.30811
B         -4.15040        2.75779        0.59571
B          5.57529        1.30291        0.14857
B          5.38721       -0.37454       -0.02741
B          4.99165       -1.82904        0.78077
B          6.18707       -0.98985        1.29472
B          6.50532        0.41087        0.95687
B         -1.82162       -0.77558       -0.99468
B          0.64837       -1.59325        0.39844
B         -0.03437        1.52627       -0.52905
B         -5.36850        1.90815        0.90003
B         -5.89088        0.46014        0.71706
B         -5.89041       -1.05915        0.65371
B         -0.13538       -0.19837       -0.29378
