45
isomer_1548.log	Energy: -113506.2434239
B         -1.70116       -1.76245       -0.34917
B         -1.19391       -3.13272        0.95304
B          0.29223       -3.56746        0.73696
B          1.35691       -3.26697       -0.67448
B         -0.72021       -1.37665       -1.67245
B          1.82711       -0.58620       -0.76987
B          3.00797       -3.46328       -0.07166
B         -3.16743       -1.02397       -0.06630
B          2.52272       -2.12419       -1.06566
B         -2.21928       -1.98888        1.28150
B          1.81225       -3.98925        0.65398
B          4.13763       -2.40044       -0.45744
B          3.53855       -0.89596       -0.57591
B          4.53340        0.39305       -0.04908
B         -0.44209        1.18814       -0.73541
B          0.64212        2.45220       -0.12237
B          2.22637        2.21588        0.05798
B          3.85595        1.89808        0.31659
B          3.17994        3.31726        1.00182
B          1.59479        3.63355        0.59230
B          0.02661        4.02421        0.31340
B         -0.95506        2.83633       -0.44689
B         -1.46689        4.24630        0.01247
B         -3.65721        2.18856       -0.92515
B         -2.57845        3.26992       -0.52201
B         -3.28467        0.46482       -0.93769
B         -4.86290        1.20673       -0.73370
B         -4.63056       -0.44882       -0.91957
B         -2.09870        1.64891       -0.96115
B         -0.27549       -2.67588       -0.58810
B          2.92061        0.74832       -0.52585
B         -1.61993       -0.09582       -1.07700
B          5.07303       -1.22999        0.15025
B         -3.55759       -1.31771        1.80158
B         -4.67973       -0.86857        0.65468
B         -5.86348        0.25646        0.04661
B         -6.01194       -0.20091        1.47251
B         -4.89959       -0.80499        2.27193
B          1.18141        0.92033       -0.62533
B         -0.46146       -1.65463        0.92495
B          0.90281       -1.75016       -1.52598
B          5.73929       -0.04364        0.88358
B          5.33411        1.44592        1.11773
B          4.57839        2.82735        1.37093
B          0.06353       -0.51276       -0.21657
