45
isomer_1549.log	Energy: -113478.6838952
B          2.56884       -1.70202        0.61042
B          2.47762       -3.12707       -0.42695
B          1.11450       -3.88615       -0.48303
B         -0.14377       -3.31279        0.57611
B          1.27531       -0.73608        0.74752
B         -1.67211       -0.74884        0.71037
B         -1.65928       -4.12751       -0.12100
B          3.94357       -0.82255        0.24795
B         -1.66400       -2.46976        0.36474
B          3.83698       -2.31046       -0.39272
B         -0.30885       -4.54552       -0.53606
B         -3.03249       -3.30483       -0.05515
B         -3.11968       -1.69569        0.39973
B         -4.58322       -0.83745        0.16690
B         -0.34456        1.86457        1.04534
B         -1.75352        2.55750        0.43354
B         -3.14930        1.75795        0.21999
B         -4.49430        0.79833       -0.21975
B         -4.41967        2.46000       -0.73362
B         -3.06401        3.29720       -0.36231
B         -1.69132        4.14748       -0.41745
B         -0.31145        3.38752        0.35763
B         -0.28384        4.69339       -0.57122
B          2.49757        3.31222       -0.04934
B          1.12500        4.09519       -0.26968
B          2.52933        1.65146        0.57103
B          3.84017        2.50077       -0.10131
B          3.94304        0.91883        0.28916
B          1.17203        2.60375        0.65071
B          1.31569       -2.73374        1.06080
B         -3.25743        0.06044        0.67034
B          1.16134        0.90129        1.02359
B         -4.39681       -2.46008       -0.43654
B          5.22148       -1.52462       -0.65702
B          5.29253        0.07086       -0.09478
B          5.22906        1.72140       -0.49992
B          6.32573        0.86969       -1.13129
B          6.32326       -0.60533       -1.21494
B         -1.77773        0.90127        0.93979
B         -0.24826        0.05627        1.04695
B         -0.18457       -1.58830        0.38806
B         -5.45428       -1.53865       -0.99655
B         -5.73176       -0.01855       -1.05515
B         -5.56085        1.52677       -1.14105
B          1.11399       -2.05818       -0.55385
