45
isomer_1551.log	Energy: -111783.1005715
B          2.61098        1.77726       -0.43812
B          2.59149        3.41517       -0.05799
B          1.17918        4.23569        0.18480
B         -0.27191        3.39359       -0.36547
B          1.15764        0.87551       -0.74397
B         -1.71721        0.88560       -0.82945
B         -1.66750        4.16963        0.32331
B          4.07551        0.91304       -0.36451
B         -1.64887        2.49041       -0.26879
B          4.00445        2.60457        0.09231
B         -0.24718        4.84285        0.46282
B         -3.09365        3.31298        0.33764
B         -3.10915        1.69141       -0.22886
B         -4.56335        0.86876        0.26776
B         -0.26571       -1.66088       -0.89594
B         -1.64356       -2.36532       -0.26982
B         -3.10558       -1.56953       -0.22955
B         -4.56158       -0.75028        0.26741
B         -4.39229       -2.30780        0.51231
B         -3.08653       -3.19130        0.33627
B         -1.65851       -4.04483        0.32158
B         -0.26462       -3.26544       -0.36688
B         -0.23672       -4.71499        0.46080
B          2.59881       -3.28088       -0.05940
B          1.18831       -4.10460        0.18304
B          2.61472       -1.64278       -0.43884
B          4.01000       -2.46726        0.09124
B          4.07735       -0.77538       -0.36487
B          1.18549       -2.46859       -0.60165
B          1.17995        2.60002       -0.60058
B         -3.19081        0.16093       -0.62581
B          1.15941       -0.74408       -0.74431
B         -4.39747        2.42654        0.51331
B          5.32960        1.80117        0.59617
B          5.32851        0.17005        0.36190
B          5.33339       -1.66117        0.59544
B          6.49767       -0.70521        1.19785
B          6.49597        0.84751        1.19817
B         -1.71541       -0.76043       -0.82980
B          0.58433       -2.73313       -0.07329
B         -0.26948        1.78925       -0.89521
B         -5.90529        1.71380        0.72735
B         -6.09847        0.00033        0.79200
B         -5.89880       -1.72943        0.79723
B         -0.19312       -0.04274       -0.32760
