45
isomer_1553.log	Energy: -113463.4290741
B         -2.51414       -1.62348       -0.61440
B         -2.44698       -3.10722        0.27937
B         -1.03339       -3.98188        0.21456
B          0.33361       -3.30528       -0.51732
B         -1.04117       -0.73569       -0.99573
B          1.80537       -0.77662       -0.75073
B          1.76004       -4.09216        0.15929
B         -3.98360       -0.71939       -0.51338
B          1.83167       -2.48411       -0.52341
B         -3.59099       -2.42536        1.07882
B          0.33868       -4.62404        0.40683
B          3.14347       -3.31119        0.08587
B          3.31374       -1.71613       -0.41909
B          4.72426       -0.90698       -0.13387
B          0.42869        1.76111       -0.97577
B          1.84015        2.49779       -0.33090
B          3.21331        1.65645       -0.08882
B          4.65778        0.76748        0.17450
B          4.53140        2.40450        0.74562
B          3.17190        3.22083        0.40655
B          1.77246        4.09726        0.40223
B          0.43232        3.38508       -0.38576
B          0.38493        4.73903        0.46440
B         -2.40097        3.42288       -0.14600
B         -1.01004        4.19370        0.10775
B         -2.46604        1.82413       -0.60712
B         -3.78889        2.62495        0.07101
B         -3.94770        1.01285       -0.46177
B         -1.03044        2.63925       -0.73678
B         -1.02759       -2.39168       -0.50378
B          3.31089        0.00977       -0.61439
B         -0.99280        0.90641       -0.99421
B          4.51510       -2.50263        0.50288
B         -4.93453       -1.58444        0.88314
B         -5.00267        0.13398        0.51699
B         -5.02560        1.83017        0.67841
B         -6.08580        0.89171        1.39802
B         -6.05430       -0.60794        1.47186
B          1.79888        0.82336       -0.77599
B         -3.97950       -2.33617       -0.44723
B          0.39702       -1.60219       -0.88737
B          5.55344       -1.56591        1.09328
B          5.86291       -0.05334        1.06582
B          5.70894        1.48188        1.12959
B         -2.47381        0.12925       -0.91295
