45
isomer_1554.log	Energy: -113675.8857752
B         -2.50844        1.76013        0.48786
B         -2.42668        3.33531       -0.04042
B         -1.04668        4.15773       -0.12248
B          0.35197        3.38479        0.51486
B         -1.12952        0.84907        1.04183
B          1.78718        0.83005        0.91171
B          1.74929        4.14424       -0.24544
B         -3.95589        0.91126        0.21485
B          1.80253        2.53236        0.48928
B         -3.80890        2.53773       -0.29361
B          0.34296        4.74603       -0.35153
B          3.09282        3.28033       -0.26523
B          3.17389        1.68020        0.26093
B          4.53163        0.79663       -0.23890
B          0.31259       -1.83080        1.08759
B          1.72360       -2.55120        0.43033
B          3.12838       -1.73423        0.22019
B          4.54651       -0.89504       -0.14478
B          4.32531       -2.50022       -0.77103
B          3.00754       -3.34136       -0.27886
B          1.64088       -4.17014       -0.25833
B          0.26823       -3.40320        0.53918
B          0.21870       -4.74831       -0.35269
B         -2.51424       -3.30351       -0.03637
B         -1.15777       -4.14909       -0.10831
B         -2.56334       -1.72994        0.53083
B         -3.86998       -2.48477       -0.27538
B         -3.98414       -0.84490        0.22465
B         -1.18643       -2.57767        0.78963
B         -1.11866        2.59041        0.76481
B          3.29350       -0.01658        0.60914
B         -1.17023       -0.85083        1.06871
B          4.40736        2.44382       -0.74866
B         -5.06005        1.73950       -0.86521
B         -5.19562        0.04516       -0.52263
B         -5.10456       -1.65108       -0.84520
B         -6.10445       -0.70580       -1.60587
B         -6.08379        0.81473       -1.61317
B          1.71713       -0.84361        0.78682
B         -2.60949        0.01666        0.74572
B          0.36964        1.82496        1.11728
B          5.47339        1.51793       -1.30168
B          5.61951       -0.03405       -1.30530
B          5.37154       -1.56989       -1.33909
B          0.34278       -0.00282        1.09399
