45
isomer_1556.log	Energy: -113353.6224427
B         -2.55006        1.55321        0.00418
B         -2.54649        3.26514       -0.17190
B         -1.18453        4.05693       -0.11301
B          0.23626        3.34841        0.65361
B         -1.19338        0.69391        0.31367
B          1.67944        0.78916        0.70591
B          1.63231        4.12188       -0.02209
B         -3.99980        0.91007        0.11394
B          1.72212        2.51643        0.59375
B         -3.91095        2.44297       -0.55080
B          0.23704        4.66346       -0.25185
B          3.05933        3.31789       -0.03345
B          3.07598        1.69997        0.23853
B          4.44831        0.82322       -0.28856
B          0.36270       -1.79814        0.98761
B          1.75860       -2.59712        0.34021
B          3.15501       -1.74941        0.10078
B          4.57655       -0.86097       -0.16157
B          4.35550       -2.47908       -0.85636
B          3.04708       -3.34743       -0.40937
B          1.62317       -4.18654       -0.35652
B          0.28994       -3.36442        0.44583
B          0.19320       -4.74522       -0.34414
B         -2.50760       -3.20864        0.19834
B         -1.19552       -4.09208        0.00889
B         -2.57850       -1.59120        0.73949
B         -3.87973       -2.34766       -0.01800
B         -3.94438       -0.73866        0.31438
B         -1.19296       -2.53342        0.83400
B         -1.23883        2.45810        0.46238
B          3.23233       -0.04283        0.51102
B         -1.14781       -0.81158        1.35905
B          4.39430        2.51746       -0.58347
B         -5.17424        1.66269       -1.01509
B         -5.16922       -0.01258       -0.60675
B         -5.15472       -1.69310       -0.63289
B         -6.28695       -0.83304       -1.37437
B         -6.31126        0.65887       -1.50912
B          1.72682       -0.88228        0.56778
B         -0.59466        0.54612        1.94068
B          0.20768        1.70452        1.23049
B          5.48640        1.64583       -1.15884
B          5.63039        0.07337       -1.26795
B          5.39147       -1.47465       -1.37678
B          0.23966       -0.07958        0.43837
