45
isomer_1557.log	Energy: -113458.2510053
B         -2.64297       -1.53859       -0.56630
B         -2.62267       -3.24332        0.00935
B         -1.32164       -4.06134       -0.05530
B          0.19757       -3.32469       -0.78253
B         -1.22117       -0.75586       -0.92393
B          1.67679       -0.91976       -0.97171
B          1.46753       -4.09945        0.23194
B         -3.98305       -0.77977       -0.27554
B          1.34407       -2.35119        0.15118
B         -3.90171       -2.35372        0.18980
B          0.07736       -4.64515        0.17944
B          2.80215       -3.27440        0.45354
B          2.97239       -1.80273       -0.18686
B          4.32078       -0.87279        0.36443
B          0.32528        1.78416       -0.96886
B          1.80260        2.54515       -0.60176
B          3.15498        1.67807       -0.29649
B          4.54804        0.73648       -0.00017
B          4.45131        2.41825        0.53526
B          3.11943        3.28333        0.15747
B          1.76648        4.13492        0.21088
B          0.33263        3.36817       -0.39776
B          0.35486        4.72127        0.41975
B         -2.46856        3.41470        0.09221
B         -1.08985        4.15965        0.19778
B         -2.55485        1.73146       -0.65846
B         -3.74073        2.56442        0.27073
B         -3.93529        0.98951       -0.21595
B         -1.14595        2.50999       -0.42129
B         -1.19089       -2.38561       -0.38319
B          3.18291       -0.08159       -0.59090
B         -1.22459        0.93759       -1.04362
B          4.16439       -2.51407        0.85799
B         -5.22738       -1.53208        0.69912
B         -5.21892        0.13099        0.32867
B         -5.06095        1.74179        0.78642
B         -6.12078        0.84013        1.49459
B         -6.22421       -0.64392        1.40987
B          1.74180        0.85460       -0.86122
B          0.11140       -1.26047        0.17783
B          0.29153       -1.81377       -1.48272
B          5.35773       -1.63933        1.27872
B          5.60779       -0.10822        1.18791
B          5.47380        1.45201        1.08494
B          0.25056        0.00520       -1.08526
