45
isomer_1558.log	Energy: -112608.8792313
B          2.61324       -1.63816        0.38902
B          2.61535       -3.27131       -0.01151
B          1.21383       -4.10854       -0.25969
B         -0.24694       -3.29386        0.30607
B          1.14851       -0.76084        0.71114
B         -1.72559       -0.81244        0.80639
B         -1.63399       -4.08082       -0.38757
B          4.06522       -0.75256        0.32120
B         -1.63678       -2.40901        0.22544
B          4.01625       -2.43910       -0.15652
B         -0.20488       -4.73219       -0.54038
B         -3.07205       -3.24421       -0.38626
B         -3.10825       -1.63021        0.20054
B         -4.57564       -0.82197       -0.28073
B         -0.30972        1.75318        0.89975
B         -1.69957        2.44591        0.28724
B         -3.15042        1.63020        0.24204
B         -4.59657        0.79680       -0.26012
B         -4.45004        2.35948       -0.48608
B         -3.15617        3.25901       -0.30349
B         -1.74022        4.13229       -0.28303
B         -0.33306        3.36407        0.39081
B         -0.32848        4.82408       -0.41875
B          2.52875        3.42364        0.07370
B          1.10597        4.23038       -0.15355
B          2.56901        1.78132        0.43255
B          3.95066        2.63189       -0.09197
B          4.04339        0.93557        0.34268
B          1.12893        2.58484        0.61060
B          1.19448       -2.48293        0.54610
B         -3.20994       -0.10610        0.61691
B          1.12756        0.85849        0.73175
B         -4.38881       -2.37408       -0.54633
B          5.32817       -1.61091       -0.65484
B          5.30504        0.01699       -0.40017
B          5.28339        1.85086       -0.61078
B          6.45878        0.91897       -1.22911
B          6.47886       -0.63350       -1.24887
B         -1.74688        0.83331        0.82733
B          1.12832       -1.73035        1.66611
B         -0.26510       -1.69638        0.85584
B         -5.90724       -1.68002       -0.74625
B         -6.12468        0.03124       -0.78877
B         -5.94931        1.76357       -0.77303
B          0.25666       -0.11660       -0.46541
