45
isomer_1559.log	Energy: -112667.5523819
B          2.58346        1.82200       -0.45607
B          2.54963        3.45203       -0.06287
B          1.14785        4.25275        0.17852
B         -0.28641        3.43313       -0.36395
B          1.16247        0.93592       -0.76972
B         -1.74596        0.91568       -0.83970
B         -1.66766        4.19099        0.32849
B          4.02236        0.98438       -0.38264
B         -1.67078        2.53401       -0.26996
B          3.92820        2.64838        0.07949
B         -0.25457        4.82638        0.45594
B         -3.08968        3.34610        0.34448
B         -3.12312        1.74004       -0.22634
B         -4.58446        0.90513        0.26138
B         -0.35779       -1.63281       -0.92617
B         -1.72619       -2.36778       -0.29127
B         -3.14485       -1.56090       -0.24908
B         -4.57718       -0.71980        0.24526
B         -4.45561       -2.29736        0.48689
B         -3.11682       -3.19753        0.29360
B         -1.71411       -4.08278        0.29086
B         -0.37542       -3.29980       -0.38769
B         -0.30730       -4.77773        0.48385
B          2.70168       -3.22034       -0.04572
B          1.26601       -4.40380        0.37256
B          2.64425       -1.52229       -0.46826
B          4.01350       -2.33784        0.08640
B          4.05196       -0.67948       -0.38391
B          1.21409       -2.36799       -0.62551
B          1.17188        2.63978       -0.60808
B         -3.21786        0.18429       -0.63084
B          1.21650       -0.61490       -0.78825
B         -4.43739        2.48899        0.53547
B          5.23946        1.87823        0.57921
B          5.25970        0.24636        0.34392
B          5.29091       -1.52583        0.58326
B          6.39171       -0.58183        1.17818
B          6.39878        0.94348        1.18014
B         -1.76424       -0.74497       -0.84694
B          1.13886       -3.62140       -0.19469
B         -0.27510        1.83021       -0.90723
B         -5.86516        1.70378        0.72138
B         -6.04575        0.05749        0.75973
B         -5.86160       -1.60789        0.74073
B          0.27177       -0.79452        0.19515
