45
isomer_0156.log	Energy: -113401.5228829
B         -2.96970        1.66117        0.50868
B         -2.86771        3.14571       -0.24394
B         -1.48692        3.86302       -0.42938
B         -0.05746        3.20777        0.38252
B         -1.81175        0.59272        0.88009
B          1.70613        0.87438        0.85210
B          1.32332        4.01919       -0.41569
B         -4.18358        0.73657        0.27350
B          1.45136        2.44211        0.41886
B         -4.24158        2.26502       -0.35482
B         -0.09765        4.42789       -0.68742
B          2.73675        3.37044       -0.31736
B          2.99550        1.84874        0.30070
B          4.56190        1.11949        0.00665
B          0.57234       -1.76461        1.01695
B          1.98410       -2.42953        0.37687
B          3.34255       -1.57108        0.27485
B          4.57437       -0.53634       -0.30213
B          4.61524       -2.19122       -0.76132
B          3.31182       -3.10421       -0.36055
B          1.97322       -3.99092       -0.43458
B          0.56133       -3.29183        0.35943
B          0.57936       -4.53804       -0.63695
B         -2.21307       -3.26061       -0.20948
B         -0.85836       -3.98864       -0.37033
B         -2.34341       -1.55486        0.58894
B         -3.54050       -2.51330       -0.27077
B         -3.83761       -0.98557        0.23849
B         -0.93473       -2.47088        0.48022
B         -1.48978        2.29338        0.32732
B          3.34580        0.14826        0.64967
B         -0.98447       -0.89157        1.11521
B          4.10550        2.66854       -0.71815
B         -5.52131        1.33895       -0.71765
B         -5.18700       -0.30315       -0.41976
B         -4.96656       -1.92846       -0.72792
B         -6.15432       -1.20189       -1.38944
B         -6.41934        0.27830       -1.35301
B          1.98062       -0.79051        1.10792
B         -0.75653        0.54141        2.01299
B          0.00118        1.63535        0.95600
B          5.24768        1.82736       -1.25638
B          5.68480        0.34112       -1.24437
B          5.68277       -1.21449       -1.22984
B          0.58570       -0.12518        1.72327
