45
isomer_1560.log	Energy: -112552.1809521
B          2.61993       -1.63782        0.36717
B          2.61643       -3.27099       -0.03329
B          1.21200       -4.10369       -0.28024
B         -0.24565       -3.28428        0.28672
B          1.15831       -0.75576        0.69049
B         -1.71585       -0.79808        0.78818
B         -1.63582       -4.06679       -0.40570
B          4.07471       -0.75692        0.29808
B         -1.63269       -2.39496        0.20724
B          4.01989       -2.44331       -0.17952
B         -0.20894       -4.72278       -0.55970
B         -3.07117       -3.22554       -0.40321
B         -3.10166       -1.61141        0.18355
B         -4.56684       -0.79846       -0.29651
B         -0.29163        1.76296        0.88022
B         -1.67976        2.46015        0.26886
B         -3.13327        1.64912        0.22493
B         -4.58253        0.82037       -0.27596
B         -4.43114        2.38256       -0.50212
B         -3.13422        3.27792       -0.32066
B         -1.71545        4.14663       -0.30145
B         -0.31020        3.37390        0.37123
B         -0.30160        4.83385       -0.43839
B          2.55152        3.42421        0.05169
B          1.13115        4.23554       -0.17439
B          2.58677        1.78178        0.41058
B          3.97072        2.62787       -0.11515
B          4.05834        0.93128        0.31950
B          1.14945        2.58996        0.58982
B          1.19859       -2.47800        0.52549
B         -3.19807       -0.08696        0.59993
B          1.14261        0.86363        0.71105
B         -4.38525       -2.35118       -0.56220
B          5.33405       -1.61938       -0.67899
B          5.31640        0.00860       -0.42438
B          5.30048        1.84252       -0.63505
B          6.47233        0.90681       -1.25434
B          6.48739       -0.64572       -1.27404
B         -1.73181        0.84773        0.80907
B          0.93068       -1.30105        2.32740
B         -0.25818       -1.68673        0.83644
B         -5.90160       -1.65222       -0.76086
B         -6.11354        0.05972       -0.80328
B         -5.93257        1.79148       -0.78777
B         -0.05229       -0.92657       -0.28044
