45
isomer_1561.log	Energy: -112226.2256896
B          2.65541       -1.68052        0.34992
B          2.64256       -3.31141       -0.05948
B          1.23385       -4.13151       -0.32364
B         -0.22232       -3.30354        0.23462
B          1.19799       -0.78854        0.66486
B         -1.67719       -0.80839        0.73638
B         -1.61233       -4.07115       -0.47458
B          4.11772       -0.81092        0.29877
B         -1.60146       -2.40273        0.14749
B          4.05382       -2.49422       -0.18852
B         -0.18939       -4.73769       -0.61928
B         -3.04091       -3.21847       -0.48045
B         -3.06388       -1.60733        0.11483
B         -4.51814       -0.78011       -0.37397
B         -0.23354        1.74064        0.85527
B         -1.61048        2.45220        0.23523
B         -3.06994        1.65308        0.17375
B         -4.52114        0.83866       -0.34472
B         -4.35530        2.40079       -0.56095
B         -3.05300        3.28475       -0.36291
B         -1.62759        4.14196       -0.32615
B         -0.23469        3.35439        0.35495
B         -0.20714        4.81858       -0.44658
B          2.63012        3.38353        0.06152
B          1.21836        4.20740       -0.17293
B          2.64906        1.73896        0.41172
B          4.04440        2.57678       -0.09687
B          4.11458        0.87722        0.32928
B          1.21665        2.55764        0.58240
B          1.22606       -2.51014        0.49081
B         -3.15194       -0.08443        0.53865
B          1.19498        0.83079        0.69412
B         -4.34650       -2.33277       -0.64650
B          5.37897       -1.67814       -0.67160
B          5.37195       -0.05148       -0.40826
B          5.37254        1.78362       -0.60904
B          6.54247        0.84192       -1.22283
B          6.54536       -0.71054       -1.25089
B         -1.68025        0.83736        0.76612
B         -0.64552       -1.89922        2.43389
B         -0.22713       -1.70892        0.79292
B         -5.85539       -1.62064       -0.85501
B         -6.05331        0.09314       -0.88998
B         -5.85873        1.82329       -0.86337
B         -0.74963        0.50610        0.98102
