45
isomer_1562.log	Energy: -111865.2130752
B          2.63371       -1.62232        0.32814
B          2.62186       -3.24739       -0.10385
B          1.21344       -4.06611       -0.37372
B         -0.24181       -3.24844        0.20186
B          1.17611       -0.73727        0.66131
B         -1.69872       -0.76297        0.74412
B         -1.63343       -4.00846       -0.51235
B          4.09437       -0.74962        0.28319
B         -1.62277       -2.34883        0.13281
B          4.03125       -2.42609       -0.22719
B         -0.20999       -4.67053       -0.67203
B         -3.06341       -3.15820       -0.50060
B         -3.08661       -1.55553        0.11710
B         -4.54418       -0.72405       -0.35429
B         -0.25876        1.78660        0.89263
B         -1.63936        2.50438        0.28809
B         -3.09775        1.70373        0.22138
B         -4.54971        0.89415       -0.30252
B         -4.38729        2.45940       -0.49768
B         -3.08564        3.34272       -0.29261
B         -1.66150        4.20175       -0.24967
B         -0.26456        3.40715        0.41480
B         -0.24265        4.88237       -0.36639
B          2.59898        3.44520        0.11028
B          1.18494        4.26987       -0.10701
B          2.62202        1.79596        0.43750
B          4.01392        2.64311       -0.06500
B          4.08860        0.93792        0.33719
B          1.18898        2.60976        0.62531
B          1.20630       -2.45623        0.46323
B         -3.17543       -0.03882        0.56241
B          1.17058        0.88149        0.71310
B         -4.37111       -2.27249       -0.64907
B          5.35310       -1.60115       -0.70421
B          5.34449        0.02169       -0.41825
B          5.34126        1.85940       -0.59349
B          6.51025        0.92830       -1.22502
B          6.51555       -0.62362       -1.27467
B         -1.70434        0.88221        0.79675
B         -0.09267       -3.16600        2.18553
B         -0.24697       -1.66174        0.78230
B         -5.88199       -1.56008       -0.84158
B         -6.08285        0.15369       -0.85192
B         -5.89098        1.88362       -0.80204
B         -0.17522       -0.78853        0.68613
