45
isomer_1565.log	Energy: -113478.5023931
B         -2.57292       -1.70873       -0.61853
B         -2.48313       -3.12392        0.42889
B         -1.12071       -3.88162        0.48938
B          0.13795       -3.32088       -0.57740
B         -1.28140       -0.72998       -0.73723
B          1.67152       -0.75283       -0.71764
B          1.65421       -4.12947        0.12830
B         -3.93789       -0.81212       -0.25815
B          1.66053       -2.47468       -0.36626
B         -3.84178       -2.30318        0.38866
B          0.30266       -4.54233        0.54566
B          3.02683       -3.30679        0.06357
B          3.11714       -1.69971       -0.39416
B          4.58028       -0.84122       -0.15982
B          0.34593        1.86451       -1.04393
B          1.75737        2.55584       -0.44139
B          3.15218        1.75498       -0.22709
B          4.49478        0.79516        0.21882
B          4.42271        2.45774        0.72746
B          3.06891        3.29506        0.35470
B          1.69855        4.14836        0.41254
B          0.31665        3.38670       -0.35547
B          0.29293        4.69665        0.56834
B         -2.49247        3.31563        0.05735
B         -1.11763        4.09739        0.27366
B         -2.52710        1.65327       -0.56737
B         -3.83527        2.50637        0.10808
B         -3.94412        0.92665       -0.29079
B         -1.16856        2.60428       -0.64127
B         -1.32474       -2.74353       -1.06467
B          3.25790        0.05545       -0.67124
B         -1.16028        0.90361       -1.02110
B          4.39165       -2.46120        0.44900
B         -5.22077       -1.51939        0.65226
B         -5.28932        0.07559        0.09866
B         -5.22553        1.72590        0.50707
B         -6.32074        0.87393        1.13888
B         -6.31987       -0.60163        1.21780
B          1.77792        0.89738       -0.94214
B         -1.11523       -2.05493        0.54356
B          0.17991       -1.60022       -0.42870
B          5.45179       -1.54143        1.00511
B          5.73052       -0.02094        1.05862
B          5.56212        1.52458        1.13931
B          0.24650        0.05571       -1.05129
