45
isomer_1566.log	Energy: -113675.8855304
B         -2.56276        1.73095        0.52968
B         -2.51269        3.30389       -0.03735
B         -1.15558        4.14931       -0.10941
B          0.26961        3.40271        0.53834
B         -1.16987        0.85065        1.06836
B          1.71764        0.84319        0.78900
B          1.64285        4.16932       -0.25844
B         -3.98392        0.84588        0.22452
B          1.72546        2.55147        0.43174
B         -3.86899        2.48538       -0.27651
B          0.22091        4.74785       -0.35366
B          3.00920        3.33951       -0.27883
B          3.12864        1.73194        0.22028
B          4.54725        0.89361       -0.14562
B          0.36851       -1.82560        1.11710
B          1.80143       -2.53288        0.48839
B          3.17277       -1.68056        0.25920
B          4.53282       -0.79868       -0.23596
B          4.40681       -2.44483       -0.74924
B          3.09123       -3.28072       -0.26669
B          1.74732       -4.14418       -0.24672
B          0.35035       -3.38519        0.51479
B          0.34080       -4.74550       -0.35299
B         -2.42819       -3.33415       -0.04066
B         -1.04819       -4.15676       -0.12416
B         -2.51014       -1.75989        0.48979
B         -3.81056       -2.53646       -0.29257
B         -3.95662       -0.90961        0.21578
B         -1.11997       -2.59006        0.76482
B         -1.18521        2.57772        0.78826
B          3.29315        0.01572        0.60840
B         -1.13015       -0.84889        1.04232
B          4.32753        2.49916       -0.77001
B         -5.10422        1.65243       -0.84544
B         -5.19621       -0.04368       -0.52203
B         -5.06164       -1.73795       -0.86389
B         -6.08494       -0.81321       -1.61233
B         -6.10459        0.70762       -1.60569
B          1.78543       -0.83068        0.91059
B         -2.60983       -0.01566        0.74629
B          0.31300        1.83075        1.08753
B          5.37480        1.56938       -1.33744
B          5.62060        0.03291       -1.30375
B          5.47337       -1.51891       -1.30086
B          0.34278        0.00269        1.09507
