45
isomer_1569.log	Energy: -113458.2564966
B         -2.64359       -1.53855       -0.56689
B         -2.62316       -3.24372        0.00804
B         -1.32148       -4.06089       -0.05520
B          0.19762       -3.32374       -0.78081
B         -1.22201       -0.75465       -0.92265
B          1.67658       -0.91947       -0.97174
B          1.46727       -4.09818        0.23381
B         -3.98388       -0.77995       -0.27749
B          1.34378       -2.34966        0.15275
B         -3.90256       -2.35422        0.18809
B          0.07756       -4.64476        0.18040
B          2.80197       -3.27305        0.45573
B          2.97195       -1.80181       -0.18531
B          4.32364       -0.87323        0.36142
B          0.32520        1.78421       -0.96867
B          1.80276        2.54541       -0.60332
B          3.15268        1.67629       -0.28912
B          4.54971        0.73657       -0.00452
B          4.45149        2.41787        0.53525
B          3.11877        3.28263        0.16005
B          1.76613        4.13451        0.21222
B          0.33275        3.36781       -0.39668
B          0.35462        4.72127        0.42027
B         -2.46890        3.41471        0.09152
B         -1.08998        4.15952        0.19763
B         -2.55530        1.73078       -0.65956
B         -3.74073        2.56405        0.26997
B         -3.93602        0.98950       -0.21669
B         -1.14650        2.50997       -0.42000
B         -1.19185       -2.38511       -0.38455
B          3.18304       -0.08184       -0.59089
B         -1.22417        0.93874       -1.04545
B          4.16525       -2.51371        0.85778
B         -5.22788       -1.53266        0.69809
B         -5.21853        0.13040        0.32953
B         -5.06071        1.74150        0.78674
B         -6.12006        0.83955        1.49562
B         -6.22425       -0.64440        1.40989
B          1.74161        0.85449       -0.85905
B          0.24990        0.00524       -1.08436
B          0.29148       -1.81335       -1.48219
B          5.36035       -1.63993        1.27563
B          5.61047       -0.10893        1.18404
B          5.47507        1.45094        1.08187
B          0.10993       -1.26013        0.17880
