45
isomer_0157.log	Energy: -113324.2039040
B         -2.59662        1.64268        0.57175
B         -2.56931        3.31358       -0.08997
B         -1.21161        4.08691       -0.25106
B          0.24750        3.37441        0.41492
B         -1.23953        0.85557        0.95358
B          1.72260        0.91605        0.85707
B          1.64436        4.09777       -0.42605
B         -3.97890        0.88916        0.26229
B          1.69208        2.54371        0.30831
B         -3.86336        2.46392       -0.23064
B          0.20259        4.61106       -0.58836
B          3.02783        3.30162       -0.40882
B          3.09582        1.73867        0.23783
B          4.46684        0.83763       -0.24750
B          0.20392       -1.84555        0.92210
B          1.63230       -2.48143        0.17213
B          3.05885       -1.68236        0.20446
B          4.35650       -0.80602       -0.32546
B          4.39141       -2.45379       -0.66623
B          2.95930       -3.24197       -0.42619
B          1.57230       -4.06471       -0.52028
B          0.18290       -3.36843        0.21568
B          0.12369       -4.65930       -0.67573
B         -2.62784       -3.26118       -0.10231
B         -1.27141       -4.09144       -0.33369
B         -2.62329       -1.61874        0.58683
B         -3.91949       -2.38670       -0.23239
B         -4.01683       -0.83135        0.26142
B         -1.29371       -2.52339        0.49321
B         -1.24030        2.52866        0.56680
B          3.16943        0.03318        0.53453
B         -1.19967       -0.81096        1.00278
B          4.39690        2.47713       -0.70721
B         -5.18954        1.69807       -0.74328
B         -5.18816        0.06684       -0.42606
B         -5.24014       -1.57584       -0.73930
B         -6.23704       -0.66873       -1.46759
B         -6.21377        0.82616       -1.47759
B          1.67177       -0.83659        0.92500
B          0.53772       -1.11889        2.24151
B          0.25161        1.80628        1.03584
B          5.54273        1.55235       -1.16261
B          5.74500        0.00142       -1.10979
B          5.56882       -1.56154       -1.07146
B          0.25575        0.22609        1.66153
