45
isomer_1570.log	Energy: -113468.0315103
B         -2.67133       -1.49924       -0.69592
B         -2.71856       -3.13605       -0.92936
B         -1.53137       -3.91037        0.08442
B          0.05243       -3.22751       -0.38713
B         -1.05918       -0.64764       -0.94869
B          1.72353       -0.87106       -0.87210
B          1.28382       -4.03520        0.47696
B         -3.93962       -0.48132       -0.27124
B          1.52394       -2.43577       -0.19231
B         -3.99394       -2.18330        0.20945
B         -0.16918       -4.54837        0.47598
B          2.74905       -3.33803        0.50161
B          3.02647       -1.84545       -0.12654
B          4.50184       -1.06395        0.23850
B          0.56524        1.69218       -0.87600
B          2.07122        2.40034       -0.53332
B          3.45190        1.50923       -0.37950
B          4.81625        0.52262       -0.18582
B          4.79052        2.19624        0.41577
B          3.48930        3.09389        0.07693
B          2.17297        4.02173        0.19443
B          0.69668        3.36103       -0.39425
B          0.81837        4.71295        0.43323
B         -2.09914        3.50650        0.19288
B         -0.63001        4.21833        0.26188
B         -2.32305        2.00174       -0.43151
B         -3.58262        2.84845        0.37501
B         -3.77536        1.22882       -0.09082
B         -0.82939        2.63096       -0.47295
B         -1.27839       -2.39117       -1.04710
B          3.34182       -0.19357       -0.66664
B         -0.93280        0.94148       -0.89940
B          4.20863       -2.64366        0.84487
B         -5.27964       -1.23789        0.55163
B         -5.23072        0.45414        0.25122
B         -4.93472        2.14607        0.78622
B         -6.03901        1.24783        1.41335
B         -6.22804       -0.25887        1.29173
B          1.87529        0.72802       -0.79915
B         -2.81040       -3.07432        0.63442
B          0.26491       -1.62756       -1.02545
B          5.47581       -1.87467        1.19419
B          5.84985       -0.36535        1.03802
B          5.77400        1.16591        0.94156
B         -2.46736        0.26187       -0.65905
