45
isomer_1572.log	Energy: -112610.8477787
B         -2.56490        1.78629        0.39745
B         -2.52801        3.42402        0.04301
B         -1.11403        4.24157       -0.17063
B          0.31528        3.39684        0.36950
B         -1.14394        0.92201        0.68704
B          1.74717        0.84951        0.80845
B          1.71283        4.16262       -0.28832
B         -4.00646        0.92065        0.30399
B          1.69655        2.48861        0.27034
B         -3.92083        2.59575       -0.12644
B          0.29762        4.81515       -0.42057
B          3.13016        3.29746       -0.30620
B          3.14505        1.67487        0.22837
B          4.60208        0.83457       -0.26085
B          0.31123       -1.71247        0.82396
B          1.69069       -2.41326        0.18775
B          3.13159       -1.62221        0.17563
B          4.58216       -0.79607       -0.28629
B          4.43715       -2.35805       -0.57745
B          3.08970       -3.22763       -0.41926
B          1.65833       -4.06651       -0.43816
B          0.27682       -3.29849        0.24825
B          0.23167       -4.68399       -0.58698
B         -2.59962       -3.26812       -0.07705
B         -1.18009       -4.09543       -0.32076
B         -2.62297       -1.62804        0.34449
B         -3.97861       -2.42715       -0.21072
B         -4.02665       -0.77532        0.27461
B         -1.19121       -2.48467        0.48188
B         -1.14807        2.61270        0.57898
B          3.21908        0.10592        0.60094
B         -1.21245       -0.72344        0.66710
B          4.47129        2.42202       -0.49975
B         -5.22936        1.81607       -0.64551
B         -5.24003        0.17873       -0.43673
B         -5.26074       -1.60017       -0.69547
B         -6.37334       -0.64403       -1.27864
B         -6.38198        0.88166       -1.26301
B          1.74557       -0.80999        0.78485
B         -1.45421       -1.94096        2.26932
B          0.29055        1.78821        0.86851
B          5.90192        1.63162       -0.69147
B          6.06826       -0.01744       -0.76920
B          5.87313       -1.68930       -0.80641
B         -0.44838       -0.56410        0.16145
