45
isomer_1573.log	Energy: -113216.4987441
B         -2.62001        1.69688        0.47330
B         -2.56246        3.37481        0.08063
B         -1.21849        4.17762       -0.11369
B          0.25967        3.39520        0.41775
B         -1.21483        0.79519        0.81698
B          1.74295        0.84743        0.88398
B          1.61300        4.14815       -0.28896
B         -4.02518        0.87722        0.33782
B          1.67253        2.54406        0.33911
B         -3.94995        2.51034       -0.12363
B          0.19120        4.77189       -0.39729
B          3.02088        3.24293       -0.31945
B          3.12271        1.71988        0.22164
B          4.50993        0.84958       -0.26583
B          0.28943       -1.65483        0.84822
B          1.73613       -2.43050        0.20294
B          3.13817       -1.62310        0.16555
B          4.48941       -0.77556       -0.27124
B          4.49539       -2.42850       -0.69036
B          3.03726       -3.19093       -0.43550
B          1.63089       -4.03120       -0.44759
B          0.24530       -3.34321        0.33753
B          0.19459       -4.62248       -0.58590
B         -2.62210       -3.27272       -0.04752
B         -1.24784       -4.06866       -0.26695
B         -2.64670       -1.59632        0.41063
B         -3.98981       -2.38825       -0.25681
B         -4.04895       -0.81140        0.28655
B         -1.31289       -2.54457        0.59970
B         -1.24598        2.56869        0.65542
B          3.26498        0.06046        0.56503
B         -1.18053       -0.74825        0.79169
B          4.45290        2.53399       -0.58617
B         -5.20799        1.77975       -0.67990
B         -5.24908        0.10147       -0.47649
B         -5.24108       -1.59754       -0.78327
B         -6.33130       -0.62098       -1.41371
B         -6.33131        0.86872       -1.37330
B          1.75736       -0.81642        0.80706
B         -0.46402       -2.42386        1.91773
B          0.24116        1.80761        0.97133
B          5.70033        1.66077       -0.90794
B          5.87517        0.08118       -0.95212
B          5.68701       -1.53968       -0.99297
B          0.34216        0.11513        0.54600
