45
isomer_1574.log	Energy: -111652.3992742
B         -2.53434        1.73647        0.38413
B         -2.50486        3.37065       -0.00388
B         -1.08986        4.18916       -0.24106
B          0.35835        3.35087        0.32241
B         -1.06320        0.83536        0.70061
B          1.80128        0.84126        0.80819
B          1.75789        4.12090       -0.36026
B         -4.01078        0.87205        0.30639
B          1.73795        2.44673        0.23865
B         -3.92160        2.55931       -0.15988
B          0.33840        4.79010       -0.51108
B          3.18317        3.26463       -0.36219
B          3.19624        1.64608        0.21181
B          4.65232        0.81868       -0.27175
B          0.34953       -1.70471        0.87715
B          1.73017       -2.41473        0.26039
B          3.19086       -1.61934        0.22601
B          4.64781       -0.80192       -0.26494
B          4.48262       -2.36183       -0.50728
B          3.17194       -3.24323       -0.33469
B          1.74459       -4.09433       -0.32727
B          0.34664       -3.31503        0.35014
B          0.32685       -4.75904       -0.47365
B         -2.52461       -3.32803        0.01731
B         -1.10017       -4.15078       -0.20754
B         -2.59499       -1.67749        0.40877
B         -3.96571       -2.50774       -0.14254
B         -4.02612       -0.81520        0.31476
B         -1.09961       -2.51766        0.57582
B         -1.09436        2.56083        0.55162
B          3.27513        0.11307        0.61618
B         -1.07133       -0.78326        0.71201
B          4.49247        2.37837       -0.52743
B         -5.24921        1.76178       -0.66895
B         -5.26070        0.12964       -0.42739
B         -5.27477       -1.69700       -0.65640
B         -6.42235       -0.73626       -1.27129
B         -6.41406        0.81203       -1.27610
B          1.79865       -0.80712        0.81600
B         -2.01155       -1.68174        0.24637
B          0.35647        1.74789        0.85886
B          5.99147        1.65443       -0.72648
B          6.18156       -0.05119       -0.78177
B          5.98247       -1.77347       -0.78176
B         -1.86065        0.84082        1.48198
