45
isomer_1575.log	Energy: -113398.5733192
B         -2.51673       -1.33863       -0.37693
B         -2.77836       -3.52889        0.01988
B         -1.24714       -3.90557        0.33427
B          0.25495       -3.29023       -0.52262
B         -1.14164       -0.67516       -1.06264
B          1.78348       -0.76243       -0.85816
B          1.61053       -4.06280        0.25231
B         -3.98620       -0.73394       -0.25042
B          1.73772       -2.50257       -0.58219
B         -3.82110       -2.36172        0.26538
B          0.21321       -4.48478        0.56300
B          3.03719       -3.28637        0.13402
B          3.17730       -1.71137       -0.37161
B          4.66441       -0.87113       -0.11788
B          0.37409        1.87679       -1.08459
B          1.79954        2.54462       -0.45775
B          3.18308        1.71555       -0.21423
B          4.50835        0.74365        0.29890
B          4.43723        2.39144        0.80467
B          3.06445        3.20773        0.42857
B          1.70419        4.10064        0.44082
B          0.35492        3.36952       -0.36255
B          0.31254        4.69556        0.56612
B         -2.45863        3.32429        0.08598
B         -1.07415        4.11510        0.28609
B         -2.53236        1.75493       -0.55531
B         -3.86262        2.55049        0.13273
B         -3.92747        0.93371       -0.24381
B         -1.13649        2.59800       -0.63473
B         -1.13437       -2.32275       -0.42374
B          3.33723        0.02020       -0.67664
B         -1.14464        0.91099       -1.07586
B          4.39228       -2.49999        0.52555
B         -5.23814       -1.48352        0.62092
B         -5.33421        0.10563        0.07029
B         -5.20286        1.79933        0.54921
B         -6.22849        0.90445        1.23983
B         -6.31297       -0.59283        1.21967
B          1.83401        0.87309       -1.03954
B         -2.16170       -2.35404        0.87194
B          0.34178       -1.68899       -1.03919
B          5.45918       -1.57862        1.08924
B          5.74908       -0.06577        1.14261
B          5.58118        1.48880        1.21809
B          0.32835        0.07760       -1.20966
