45
isomer_1577.log	Energy: -113433.4772533
B          2.47826       -1.70786        0.43410
B          2.64702       -3.18137       -0.79894
B          1.33613       -4.00328       -0.86883
B          0.07627       -3.23390        0.37430
B          1.27069       -0.62582        0.99776
B         -1.71084       -0.78076        1.05084
B         -1.41273       -3.97354       -0.26851
B          3.78239       -0.72562        0.11148
B         -1.57835       -2.50224        0.58112
B          3.73819       -2.16559       -0.61432
B         -0.06826       -4.44817       -0.73084
B         -2.86804       -3.28261       -0.13985
B         -3.06331       -1.73596        0.38233
B         -4.43419       -0.89335       -0.19925
B         -0.38320        1.86479        0.93399
B         -1.82274        2.53151        0.37019
B         -3.22984        1.70192        0.21285
B         -4.65217        0.75289        0.02019
B         -4.49759        2.38352       -0.70893
B         -3.19056        3.27362       -0.35620
B         -1.80769        4.14298       -0.43854
B         -0.40522        3.40625        0.29506
B         -0.39812        4.75292       -0.57852
B          2.40569        3.40896       -0.10273
B          1.04140        4.18495       -0.28095
B          2.46485        1.75721        0.50065
B          3.80634        2.63666       -0.08470
B          3.80292        0.99712        0.18754
B          1.12007        2.65796        0.59406
B          1.82114       -3.36741        0.55872
B         -3.28269       -0.01751        0.69685
B          1.15336        0.95663        1.04051
B         -4.30299       -2.56658       -0.57496
B          5.17333       -1.34397       -0.74105
B          5.18883        0.20986       -0.13677
B          5.13624        1.89524       -0.47520
B          6.21589        1.01627       -1.13497
B          6.31447       -0.47090       -1.16718
B         -1.76494        0.86565        0.71599
B         -0.24636        0.13830        0.97711
B         -0.27722       -1.66598        1.32016
B         -5.48390       -1.74645       -1.09217
B         -5.71598       -0.17758       -1.13021
B         -5.52860        1.37299       -1.18298
B          1.15203       -2.29175        1.45082
