45
isomer_1581.log	Energy: -113341.7419277
B         -2.65456        1.62834        0.60681
B         -2.68004        3.29104        0.06112
B         -1.34859        4.11655       -0.10843
B          0.10765        3.41212        0.45610
B         -1.30662        0.84790        1.08909
B          1.64298        0.96297        0.77587
B          1.45780        4.21462       -0.35523
B         -3.99538        0.82508        0.21795
B          1.58954        2.63137        0.34873
B         -3.95991        2.42253       -0.12341
B          0.01971        4.74364       -0.43186
B          2.86641        3.42601       -0.38204
B          2.99150        1.84039        0.11211
B          4.40321        0.98574       -0.26848
B          0.35218       -1.56098        1.40217
B          1.64317       -2.50571        0.57158
B          3.07721       -1.58862        0.28223
B          4.52017       -0.66583       -0.00893
B          4.38594       -2.28303       -0.60508
B          3.07895       -3.13921       -0.22091
B          1.77540       -3.89652       -0.59378
B          0.36639       -3.76435        0.45908
B          0.41093       -4.27210       -1.06735
B         -2.32630       -3.19760       -0.33937
B         -0.99026       -3.83567       -0.63588
B         -2.45050       -1.71066        0.48328
B         -3.69113       -2.42734       -0.44076
B         -3.83289       -0.89029        0.06957
B         -1.10944       -2.64170        0.79814
B         -1.32237        2.56474        0.81303
B          3.18286        0.14966        0.58275
B         -1.23176       -0.79078        1.04963
B          4.24806        2.62468       -0.80690
B         -5.28375        1.56688       -0.63339
B         -5.21614       -0.09162       -0.33010
B         -5.04998       -1.68452       -0.88383
B         -6.13486       -0.79474       -1.51840
B         -6.27889        0.67168       -1.36641
B          1.64410       -0.72485        0.67987
B          0.25765       -3.00824        1.78743
B          0.20564        1.86156        1.09536
B          5.38589        1.74133       -1.26844
B          5.61643        0.19322       -1.19182
B          5.43321       -1.33425       -1.15041
B          0.20038        0.08658        0.98933
