45
isomer_1583.log	Energy: -111141.0391523
B         -2.64727       -1.65498       -0.39810
B         -2.64830       -3.29025       -0.00628
B         -1.24636       -4.12682        0.24175
B          0.21498       -3.30709       -0.31516
B         -1.18280       -0.77390       -0.71102
B          1.69165       -0.82097       -0.79768
B          1.60101       -4.09580        0.37855
B         -4.10071       -0.77179       -0.33003
B          1.60331       -2.42074       -0.22553
B         -4.05082       -2.46079        0.13884
B          0.17236       -4.74998        0.52348
B          3.03788       -3.25718        0.38613
B          3.07359       -1.64002       -0.19195
B          4.53835       -0.83231        0.29814
B          0.27243        1.74312       -0.88174
B          1.65941        2.43453       -0.26126
B          3.11127        1.62062       -0.21594
B          4.55705        0.78658        0.28623
B          4.40761        2.34782        0.52006
B          3.11303        3.24650        0.33827
B          1.69592        4.11789        0.31811
B          0.29192        3.35131       -0.36415
B          0.28279        4.80697        0.45315
B         -2.57093        3.40517       -0.05556
B         -1.14999        4.21269        0.18038
B         -2.60775        1.76474       -0.42327
B         -3.99222        2.61057        0.10152
B         -4.08120        0.91646       -0.34246
B         -1.16828        2.57122       -0.59260
B         -1.22684       -2.49692       -0.55530
B          3.17440       -0.11357       -0.59987
B         -1.16409        0.84554       -0.72294
B          4.35290       -2.38607        0.55489
B         -5.36543       -1.63710        0.63752
B         -5.34383       -0.00784        0.39160
B         -5.32543        1.82491        0.61204
B         -6.50139        0.88809        1.22177
B         -6.51933       -0.66449        1.23320
B          1.71067        0.82490       -0.80979
B         -0.69124       -1.71187       -1.03702
B          0.23257       -1.70668       -0.85635
B          5.86973       -1.69096        0.76319
B          6.08460        0.02035        0.81550
B          5.90683        1.75249        0.80845
B          0.92793        0.52565       -0.50877
