45
isomer_1585.log	Energy: -112465.3497146
B          2.54264        1.81882       -0.44967
B          2.48029        3.45010       -0.06575
B          1.05635        4.24204        0.17415
B         -0.38300        3.39784       -0.36895
B          1.09454        0.93949       -0.75140
B         -1.83626        0.85714       -0.83823
B         -1.78482        4.14049        0.31654
B          4.04330        0.98277       -0.37509
B         -1.77166        2.47596       -0.27453
B          3.88726        2.65852        0.07904
B         -0.37090        4.80285        0.44851
B         -3.20706        3.27381        0.33265
B         -3.22168        1.65957       -0.23200
B         -4.67509        0.80962        0.26038
B         -0.43777       -1.67706       -0.91496
B         -1.76506       -2.41003       -0.26516
B         -3.20632       -1.62956       -0.23059
B         -4.65876       -0.81956        0.26036
B         -4.50001       -2.38713        0.52258
B         -3.15644       -3.24908        0.34373
B         -1.70773       -4.07268        0.33120
B         -0.33361       -3.28664       -0.35533
B         -0.26981       -4.69513        0.44505
B          2.63531       -3.35399       -0.03801
B          1.18249       -4.10986        0.17571
B          2.46545       -1.39960       -0.44403
B          4.19054       -2.44591        0.13965
B          4.14044       -0.65189       -0.36974
B          1.16172       -2.46908       -0.58722
B          1.08699        2.62777       -0.60717
B         -3.30087        0.10549       -0.63025
B          1.14872       -0.56870       -0.73379
B         -4.53936        2.39011        0.52244
B          5.25298        1.89093        0.59806
B          5.32668        0.24945        0.38687
B          5.41808       -1.54551        0.60973
B          6.49221       -0.55939        1.21257
B          6.43805        0.97771        1.21720
B         -1.83581       -0.79910       -0.84175
B          3.13737       -2.09200       -0.36050
B         -0.35677        1.79856       -0.90198
B         -5.97949        1.60889        0.71707
B         -6.14859       -0.06304        0.77248
B         -5.94714       -1.73867        0.77985
B          0.21259       -1.13431       -0.00969
