45
isomer_1586.log	Energy: -113367.3033107
B         -2.48901       -1.49954       -0.66246
B         -2.24881       -3.00892        0.28260
B         -1.33445       -4.17909       -0.29337
B          0.09775       -3.19621       -0.94552
B         -1.15963       -0.55903       -0.98935
B          1.72776       -0.69871       -0.98295
B          1.29500       -3.85094        0.31138
B         -3.75602       -0.61413       -0.06701
B          1.61216       -2.37806       -0.67884
B         -3.61274       -2.15241        0.48612
B          0.04865       -4.69474        0.10266
B          2.72512       -3.09806        0.36640
B          3.07043       -1.68186       -0.37235
B          4.51451       -0.84617        0.04607
B          0.36911        1.83853       -1.15384
B          1.76874        2.53589       -0.48133
B          3.16871        1.75155       -0.27236
B          4.40603        0.78026        0.33899
B          4.44371        2.46010        0.67751
B          3.08388        3.28360        0.28213
B          1.70561        4.11798        0.32152
B          0.34442        3.44771       -0.49933
B          0.30726        4.72139        0.44807
B         -2.46065        3.42176       -0.04009
B         -1.09402        4.15795        0.12013
B         -2.50772        1.73250       -0.61191
B         -3.76001        2.64113        0.11871
B         -3.90291        1.05475       -0.27139
B         -1.12832        2.63854       -0.81543
B         -1.36203       -2.51138       -1.28601
B          3.23306        0.05846       -0.63785
B         -1.06650        1.02776       -1.10083
B          4.13753       -2.37483        0.77464
B         -4.93490       -1.41033        0.92662
B         -5.18241        0.17169        0.28087
B         -5.12779        1.82731        0.63587
B         -6.13842        0.98383        1.38636
B         -5.98987       -0.47630        1.57082
B          1.74379        0.91098       -1.04039
B         -0.38749       -3.17914        0.80092
B          0.25308       -1.41820       -1.04984
B          5.26182       -1.50700        1.31647
B          5.64390       -0.02208        1.23122
B          5.55471        1.53481        1.16409
B         -0.87306       -1.74131        0.26229
