45
isomer_1588.log	Energy: -110391.8406575
B         -2.57838       -1.59120       -0.45257
B         -2.59770       -3.22693       -0.06318
B         -1.20536       -4.07843        0.18807
B          0.26622       -3.27319       -0.36296
B         -1.10381       -0.72498       -0.75953
B          1.77025       -0.80190       -0.83711
B          1.64172       -4.07730        0.33398
B         -4.02275       -0.69300       -0.38782
B          1.66341       -2.40149       -0.26761
B         -3.99196       -2.38310        0.07870
B          0.20587       -4.71676        0.47340
B          3.08723       -3.25372        0.34738
B          3.14164       -1.63619       -0.22819
B          4.61316       -0.84451        0.26775
B          0.37811        1.77697       -0.92188
B          1.77023        2.45298       -0.29597
B          3.21338        1.62391       -0.24724
B          4.64877        0.77411        0.25830
B          4.51486        2.33649        0.49396
B          3.23031        3.24888        0.30939
B          1.82243        4.13504        0.28600
B          0.41271        3.38412       -0.40186
B          0.41614        4.83861        0.41757
B         -2.45040        3.46739       -0.10230
B         -1.02188        4.25970        0.13936
B         -2.50314        1.82796       -0.47255
B         -3.88039        2.68742        0.04908
B         -3.98560        0.99498       -0.39769
B         -1.05481        2.61963       -0.63611
B         -1.16631       -2.44767       -0.60650
B          3.25965       -0.11028       -0.63353
B         -1.06818        0.89419       -0.76899
B          4.41071       -2.39662        0.52161
B         -5.29951       -1.54648        0.57442
B         -5.26014        0.08283        0.33098
B         -5.22334        1.91496        0.55419
B         -6.41095        0.98957        1.15879
B         -6.44510       -0.56275        1.16786
B          1.80646        0.84370       -0.84672
B         -2.04501       -0.64014        1.32539
B          0.30221       -1.67226       -0.90173
B          5.93403       -1.71766        0.73576
B          6.16656       -0.00877        0.79129
B          6.00687        1.72514        0.78624
B         -1.36823       -2.07325       -0.99743
