45
isomer_1589.log	Energy: -113420.5867775
B          2.67027       -1.60337        0.71485
B          2.69758       -3.20790        0.06531
B          1.34829       -4.10773       -0.04186
B         -0.13133       -3.43251        0.57813
B          1.21340       -0.79253        1.00004
B         -1.48559       -0.82147        0.13609
B         -1.45364       -4.18181       -0.40668
B          3.96739       -0.70007        0.25304
B         -1.53107       -2.59566        0.16784
B          3.95382       -2.28812       -0.11607
B          0.00526       -4.69081       -0.43239
B         -2.82677       -3.36980       -0.50640
B         -2.93724       -1.73436       -0.07490
B         -4.45214       -1.01046       -0.06175
B         -0.32549        1.68103        0.75344
B         -1.84230        2.43905        0.57521
B         -3.19015        1.55347        0.52127
B         -4.54067        0.68096        0.03195
B         -4.56810        2.38768       -0.32972
B         -3.21193        3.18745        0.02899
B         -1.87983        4.08310       -0.12753
B         -0.40881        3.28651        0.22726
B         -0.49176        4.73280       -0.39698
B          2.38721        3.35453       -0.29292
B          0.94790        4.14172       -0.33912
B          2.51104        1.74273        0.26508
B          3.81197        2.59121       -0.37691
B          3.88218        0.97361       -0.02276
B          1.11431        2.55281        0.36913
B          1.30338       -2.53119        0.65218
B         -3.14892       -0.11814        0.59896
B          1.19344        0.79382        0.69343
B         -4.20716       -2.53150       -0.89126
B          5.35287       -1.45476       -0.45147
B          5.31852        0.19913       -0.10638
B          5.18984        1.80602       -0.75267
B          6.30978        0.88468       -1.23868
B          6.44913       -0.59616       -1.03582
B         -1.68095        0.68812        1.09777
B         -0.17467        0.13377       -0.11254
B         -0.22837       -1.76929        0.92329
B         -5.34111       -1.60982       -1.24720
B         -5.67274       -0.08585       -1.02324
B         -5.61869        1.45688       -0.87576
B         -0.27814       -0.11778        1.60776
