45
isomer_0159.log	Energy: -113488.7162379
B         -2.43826        1.79617        0.60160
B         -2.40360        3.44910        0.04687
B         -0.97206        4.20657       -0.18447
B          0.44032        3.28929        0.07615
B         -1.03855        0.80317        0.48544
B          1.78129        0.74214        0.55054
B          1.88812        4.13065       -0.27699
B         -3.91901        1.01946        0.39430
B          1.85645        2.41098        0.20377
B         -3.79443        2.69869       -0.02727
B          0.47620        4.78146       -0.40429
B          3.25757        3.26076       -0.16564
B          3.29793        1.64861        0.27082
B          4.73463        0.76686        0.28011
B          0.34020       -1.66271        0.98023
B          1.64262       -2.48473        0.29002
B          3.17224       -1.78106        0.31297
B          4.60911       -0.88170        0.01634
B          4.43008       -2.50019       -0.57473
B          3.02982       -3.26566       -0.32273
B          1.59935       -4.02688       -0.41300
B          0.24027       -3.34371        0.53950
B          0.17421       -4.31350       -0.75339
B         -2.67705       -3.32032       -0.00119
B         -1.23804       -3.76644       -0.34916
B         -2.64516       -1.69088        1.01362
B         -3.69123       -2.18736       -0.39409
B         -3.96810       -0.75306        0.52710
B         -1.23135       -2.53304        0.95834
B         -1.03838        2.49715        0.18763
B          3.28445       -0.05951        0.71235
B         -1.08496       -0.87375        0.32583
B          4.64596        2.43651       -0.37764
B         -5.04409        1.86092       -0.51741
B         -5.31360        0.17626        0.01826
B         -5.13557       -1.41559       -0.58113
B         -6.24838       -0.57706       -1.15474
B         -6.04216        0.88146       -1.25078
B          1.72901       -0.86258        0.87306
B         -1.93226       -1.95783       -0.64784
B          0.42439        1.58272        0.41324
B          5.72888        1.45477       -0.76027
B          5.90127       -0.10245       -0.78714
B          5.66927       -1.62761       -0.88383
B         -2.49740        0.09388        0.74960
