45
isomer_1591.log	Energy: -113675.8203692
B          2.53513       -1.74727        0.50596
B          2.46703       -3.31684       -0.04278
B          1.09671       -4.15217       -0.12337
B         -0.31120       -3.39373        0.52257
B          1.14924       -0.84800        1.05977
B         -1.74964       -0.83655        0.85945
B         -1.69727       -4.15326       -0.25842
B          3.96985       -0.87852        0.21955
B         -1.76751       -2.54127        0.46522
B          3.83965       -2.51219       -0.28458
B         -0.28483       -4.74607       -0.35957
B         -3.05148       -3.30441       -0.27483
B         -3.15364       -1.70369        0.24485
B         -4.54188       -0.84369       -0.19143
B         -0.33727        1.83183        1.10444
B         -1.76305        2.54221        0.46206
B         -3.15121        1.70682        0.24268
B         -4.54270        0.84905       -0.18650
B         -4.36679        2.47141       -0.76201
B         -3.04678        3.30787       -0.27515
B         -1.69135        4.15490       -0.25849
B         -0.30647        3.39462        0.52358
B         -0.27796        4.74618       -0.35978
B          2.47187        3.31498       -0.04288
B          1.10288        4.15163       -0.12285
B          2.53840        1.74566        0.50857
B          3.84312        2.50933       -0.28363
B          3.97144        0.87487        0.22010
B          1.15419        2.58331        0.77925
B          1.15030       -2.58406        0.77776
B         -3.29576        0.00096        0.60864
B          1.15160        0.84801        1.06149
B         -4.37160       -2.46837       -0.76058
B          5.08430       -1.69809       -0.85401
B          5.19775       -0.00245       -0.52115
B          5.08667        1.69320       -0.85322
B          6.09673        0.75793       -1.60796
B          6.09580       -0.76401       -1.60805
B         -1.74588        0.83737        0.85319
B          2.60960       -0.00092        0.74348
B         -0.34053       -1.83160        1.10612
B         -5.42953       -1.54403       -1.32027
B         -5.62075        0.00192       -1.30384
B         -5.42403        1.54704       -1.32229
B         -0.34317        0.00010        1.10890
