45
isomer_1596.log	Energy: -113436.7070891
B         -2.46988        1.76961        0.52660
B         -2.42267        3.43520       -0.09084
B         -1.06270        4.19634       -0.26312
B          0.38212        3.41283        0.29527
B         -1.15714        0.95824        1.04130
B          1.75591        0.86834        0.71518
B          1.77338        4.14320       -0.44289
B         -3.79857        0.99161        0.19269
B          1.79552        2.53121        0.33741
B         -3.79726        2.64481       -0.09180
B          0.37330        4.75322       -0.56466
B          3.14168        3.27788       -0.38279
B          3.18952        1.69827        0.16289
B          4.62536        0.77784        0.02784
B          0.30560       -1.67894        1.29793
B          1.59821       -2.48703        0.54679
B          3.06248       -1.71726        0.38002
B          4.42089       -0.86676       -0.18674
B          4.30796       -2.52412       -0.57087
B          2.88818       -3.25367       -0.14592
B          1.45963       -3.96713       -0.27680
B         -0.04199       -3.24335        0.37855
B          0.13058       -4.44657       -0.73919
B         -2.62957       -3.20344       -0.81639
B         -1.28700       -3.99849       -0.88539
B         -2.44744       -1.70121        0.44039
B         -3.74106       -2.18912       -0.58605
B         -3.78343       -0.74822        0.12570
B         -1.79899       -3.35502        0.54653
B         -1.12071        2.65990        0.62499
B          3.27542       -0.00965        0.70327
B         -1.25256       -0.65410        0.99936
B          4.45259        2.39916       -0.71691
B         -5.13716        1.86532       -0.49545
B         -5.16828        0.18960       -0.15154
B         -5.16548       -1.38494       -0.72078
B         -6.29950       -0.49961       -1.17092
B         -6.22737        0.98691       -1.13555
B          1.71673       -0.78644        1.05784
B         -1.12983       -2.31487        1.47547
B          0.37601        1.86403        0.93666
B          5.49757        1.38568       -1.16701
B          5.68123       -0.14783       -1.11566
B          5.46288       -1.69988       -1.07151
B          0.26585        0.06842        0.97610
