45
isomer_1597.log	Energy: -113416.9704856
B         -2.68226        1.60071        0.72525
B         -2.70477        3.21222        0.07229
B         -1.35733        4.11201       -0.03359
B          0.12887        3.43855        0.58883
B         -1.22428        0.79304        1.00473
B          1.48753        0.82700        0.13735
B          1.45056        4.19057       -0.39927
B         -3.99369        0.70813        0.28267
B          1.53096        2.60197        0.17326
B         -3.96191        2.28681       -0.11949
B         -0.00997        4.69641       -0.42395
B          2.82910        3.37855       -0.50133
B          2.93884        1.74028       -0.07573
B          4.45663        1.01664       -0.07053
B          0.33057       -1.69395        0.76742
B          1.85096       -2.44783        0.57315
B          3.20153       -1.55642        0.51446
B          4.54718       -0.67758        0.01423
B          4.57620       -2.38235       -0.34885
B          3.22054       -3.18972        0.01509
B          1.88389       -4.09117       -0.13552
B          0.41368       -3.29685        0.23300
B          0.49495       -4.74049       -0.40098
B         -2.39169       -3.35991       -0.27985
B         -0.94808       -4.14765       -0.33581
B         -2.52113       -1.74831        0.30047
B         -3.81894       -2.59076       -0.35372
B         -3.89988       -0.97822        0.03377
B         -1.11384       -2.56155        0.37515
B         -1.31428        2.53218        0.65950
B          3.15717        0.12037        0.59446
B         -1.19620       -0.80831        0.71569
B          4.20792        2.54302       -0.89213
B         -5.35251        1.45702       -0.48422
B         -5.32439       -0.19687       -0.14172
B         -5.18597       -1.80248       -0.76082
B         -6.28788       -0.88502       -1.29439
B         -6.42911        0.59683       -1.10498
B          1.69358       -0.69560        1.10048
B          0.16023       -0.14387       -0.11664
B          0.22579        1.77630        0.93531
B          5.34208        1.62170       -1.25577
B          5.67620        0.09693       -1.03931
B          5.62514       -1.44822       -0.89694
B          0.28802        0.09590        1.64898
