45
isomer_1598.log	Energy: -113460.5865961
B         -2.39035        1.85934        0.47904
B         -2.37121        3.52019        0.02851
B         -0.97029        4.23938       -0.21279
B          0.43465        3.43286        0.35763
B         -1.13544        0.98080        1.01132
B          1.81993        0.92375        0.95671
B          1.82265        4.09588       -0.48156
B         -3.72524        1.04722        0.13331
B          1.87117        2.55049        0.35522
B         -3.70164        2.70539       -0.10622
B          0.43797        4.74808       -0.56034
B          3.15759        3.18673       -0.48564
B          3.19188        1.63609        0.14958
B          4.52790        0.67806       -0.27582
B          0.28641       -1.58782        1.39886
B          1.60255       -2.45795        0.68626
B          3.05419       -1.75678        0.43054
B          4.48543       -0.98622       -0.01379
B          4.16491       -2.59286       -0.58273
B          2.78097       -3.33945       -0.07640
B          1.31011       -3.97090       -0.04206
B          0.07162       -3.23243        0.86915
B         -0.17459       -4.28592       -0.45675
B         -2.72910       -3.30221       -0.93109
B         -1.59405       -4.27231       -1.07438
B         -2.43555       -1.78744        0.37170
B         -3.78272       -2.18348       -0.63657
B         -3.66226       -0.68915       -0.03541
B         -1.53253       -3.29990        0.19469
B         -1.03047        2.70720        0.74428
B          3.29304       -0.01246        0.68871
B         -1.33159       -0.59378        1.01909
B          4.45738        2.28652       -0.90499
B         -5.08338        1.88514       -0.47996
B         -5.06868        0.21967       -0.17128
B         -5.11849       -1.35048       -0.80850
B         -6.23580       -0.40910       -1.20869
B         -6.23182        1.05570       -1.03628
B          1.68216       -0.76443        0.99213
B          0.27923        0.12761        1.06791
B          0.43328        1.92110        1.10847
B          5.49908        1.29782       -1.38032
B          5.59022       -0.25699       -1.27196
B          5.26630       -1.76251       -1.19263
B         -1.21541       -2.21043        1.38302
