45
isomer_0016.log	Energy: -113455.9905687
B         -2.23275        1.18725        0.46875
B         -2.21791        2.68770       -0.76656
B         -0.88871        3.42376       -1.15876
B          0.49976        3.34672       -0.04104
B         -0.87663        1.15814        1.40165
B          1.83672        0.88599        1.25585
B          1.93831        3.60470       -1.01745
B         -3.84482        0.62689        0.36334
B          1.92939        2.46628        0.28557
B         -3.56424        2.05710       -0.40105
B          0.54083        3.89650       -1.53009
B          3.31175        2.94487       -0.49876
B          3.24128        1.50950        0.31225
B          4.53673        0.48039       -0.06946
B          0.06297       -1.48200        0.61980
B          1.46274       -2.42290        0.16916
B          2.97853       -1.88746        0.44841
B          4.53465       -1.17532        0.25800
B          4.22016       -2.76166       -0.41116
B          2.73718       -3.36968       -0.30331
B          1.23193       -3.95160       -0.58838
B         -0.12634       -3.04080        0.04914
B         -0.20922       -4.23839       -0.97583
B         -2.84885       -2.63139       -0.63931
B         -1.56667       -3.47144       -0.77373
B         -2.87113       -0.94200        0.34721
B         -4.18039       -2.03643       -0.30452
B         -4.43484       -0.92913        0.81612
B         -1.47422       -1.87848       -0.08032
B         -0.97184        2.40145        0.17518
B          3.21398       -0.16494        0.76796
B         -1.32900       -0.36058        0.60553
B          4.69741        2.08178       -0.56880
B         -5.06160        1.63840       -0.45748
B         -5.53002        0.19100        0.29884
B         -5.72438       -1.43121       -0.13994
B         -6.75722       -0.45405       -0.65962
B         -6.39314        0.96314       -0.85738
B          1.64197       -0.81970        0.75648
B          0.61394        1.15144        2.35959
B          0.48734        2.23834        1.19040
B          5.82461        1.10025       -0.78223
B          5.84249       -0.47008       -0.72237
B          5.46908       -1.96884       -0.76570
B          0.25015       -0.15354        1.56401
