45
isomer_1601.log	Energy: -110454.8462697
B          2.52827        1.80240       -0.48559
B          2.49595        3.43375       -0.07905
B          1.07771        4.23662        0.18700
B         -0.36928        3.38948       -0.36634
B          1.08139        0.89169       -0.79549
B         -1.79398        0.87543       -0.86023
B         -1.76713        4.14091        0.34481
B          4.00146        0.95127       -0.43637
B         -1.73683        2.47164       -0.27434
B          3.91764        2.63451        0.04809
B         -0.35230        4.82547        0.48495
B         -3.18490        3.27042        0.35557
B         -3.18910        1.65806       -0.23680
B         -4.63173        0.81358        0.25691
B         -0.31880       -1.65554       -0.97803
B         -1.68527       -2.38317       -0.35347
B         -3.15447       -1.60227       -0.28995
B         -4.61454       -0.80515        0.23053
B         -4.42863       -2.36468        0.44913
B         -3.11583       -3.23263        0.24957
B         -1.67990       -4.07200        0.21094
B         -0.29857       -3.26829       -0.47485
B         -0.25081       -4.73057        0.32919
B          2.56706       -3.26104       -0.18817
B          1.16628       -4.10209        0.05109
B          2.56458       -1.61699       -0.54133
B          3.97150       -2.43636       -0.03457
B          4.01939       -0.73683       -0.46388
B          1.14214       -2.45384       -0.70716
B          1.08831        2.61381       -0.62456
B         -3.25907        0.13342       -0.65772
B          1.09858       -0.72759       -0.82188
B         -4.47891        2.36876        0.52629
B          5.25403        1.83596        0.52947
B          5.26676        0.20886        0.26902
B          5.29080       -1.62572        0.47304
B          6.45029       -0.66835        1.08239
B          6.43380        0.88408        1.10770
B         -1.77650       -0.77029       -0.88705
B          1.69877       -1.66079        2.34297
B         -0.35544        1.79393       -0.92180
B         -5.97826        1.63818        0.73963
B         -6.15463       -0.07789        0.77810
B         -5.93846       -1.80550        0.75409
B          1.39862       -0.81464       -0.32184
