45
isomer_1603.log	Energy: -113091.7933180
B         -2.73902       -1.94624       -0.39942
B         -2.67515       -3.45081       -0.04019
B         -1.26456       -4.17546        0.20634
B          0.21220       -3.38855       -0.33023
B         -1.03735       -0.75708       -0.75288
B          1.77549       -0.87336       -0.81582
B          1.58101       -4.14494        0.36184
B         -4.14096       -0.69598       -0.33379
B          1.64541       -2.50937       -0.23803
B         -4.16175       -2.53197        0.15572
B          0.17325       -4.74344        0.48474
B          3.00946       -3.32117        0.37331
B          3.10647       -1.73595       -0.19096
B          4.58014       -0.91261        0.27624
B          0.53276        1.89656       -0.88312
B          1.87946        2.49378       -0.23476
B          3.22795        1.64639       -0.21979
B          4.61530        0.75328        0.24956
B          4.58221        2.35830        0.56483
B          3.22525        3.25526        0.36840
B          1.84324        4.13967        0.37965
B          0.44632        3.38697       -0.34880
B          0.43840        4.72955        0.47236
B         -2.38438        3.37160       -0.06491
B         -0.99999        4.16061        0.17174
B         -2.57800        1.73657       -0.42998
B         -3.84548        2.60295        0.11256
B         -4.02940        0.99801       -0.33061
B         -1.06658        2.57405       -0.58733
B         -1.21641       -2.61910       -0.57319
B          3.25279       -0.13429       -0.59952
B         -1.32400        0.82031       -0.69991
B          4.43287       -2.52873        0.57835
B         -5.34988       -1.54961        0.63544
B         -5.26120        0.15545        0.42223
B         -5.16855        1.90328        0.63785
B         -6.31817        1.02910        1.25003
B         -6.42930       -0.48904        1.26570
B          1.85652        0.77337       -0.82925
B         -2.53599       -0.72758       -0.55051
B          0.30015       -1.72406       -0.88795
B          5.81189       -1.72774        0.74445
B          6.01445       -0.10413        0.77048
B          5.88026        1.50674        0.78012
B          0.10289        0.49939       -0.92096
