45
isomer_1604.log	Energy: -113532.9929202
B          2.60168       -1.46526        0.44408
B          2.85249       -3.09080        0.57317
B          1.69608       -3.92565       -0.06245
B          0.05728       -3.24907        0.39640
B          1.04114       -0.81307        0.52857
B         -1.69746       -0.96998        1.02904
B         -1.05740       -3.71224       -0.91255
B          3.99089       -0.45873        0.47403
B         -1.45625       -2.48181        0.19603
B          4.17885       -2.10255        0.28078
B          0.50362       -3.94282       -1.02313
B         -2.54645       -3.20773       -0.80223
B         -2.90734       -1.80765        0.10166
B         -4.42482       -1.11268       -0.20161
B         -0.59072        1.60859        0.77895
B         -2.09338        2.29841        0.58413
B         -3.49063        1.42730        0.57594
B         -4.83920        0.40491        0.41370
B         -4.84685        2.12677       -0.15714
B         -3.56603        3.02540        0.10870
B         -2.27307        3.94249       -0.16316
B         -0.75845        3.26167        0.26772
B         -0.94096        4.61131       -0.53754
B          2.03644        3.44097       -0.42128
B          0.53390        4.11609       -0.47413
B          2.22862        1.88363        0.15291
B          3.51556        2.80706       -0.52153
B          3.78874        1.27374        0.19454
B          0.76309        2.55372        0.21801
B          1.35112       -2.50512        1.30484
B         -3.33769       -0.29049        0.83650
B          0.90336        0.85574        0.64559
B         -4.05733       -2.56743       -1.01039
B          5.39137       -1.22631       -0.22335
B          5.17104        0.48777       -0.28524
B          4.93965        2.12023       -0.77549
B          6.24660        1.25811       -1.14762
B          6.44736       -0.22311       -0.90213
B         -1.87588        0.63525        0.87442
B          2.44732        0.30009        0.70516
B         -0.20094       -1.75512        1.17764
B         -5.38697       -1.89843       -1.20490
B         -5.84627       -0.42614       -0.87463
B         -5.81658        1.07495       -0.68560
B          1.32446       -2.28200       -0.47641
