45
isomer_1605.log	Energy: -112972.1419849
B         -2.66486       -1.55395       -0.48988
B         -2.68967       -3.21911       -0.11729
B         -1.33217       -4.12372        0.12815
B          0.22437       -3.25541       -0.44873
B         -1.22097       -0.65246       -0.78608
B          1.70698       -0.70880       -0.87138
B          1.60165       -4.04279        0.25387
B         -4.05466       -0.67850       -0.40623
B          1.63292       -2.36728       -0.32594
B         -4.01929       -2.35915        0.02905
B          0.16667       -4.72864        0.40174
B          3.02986       -3.20113        0.27410
B          3.09531       -1.57574       -0.27101
B          4.55420       -0.75997        0.22500
B          0.27574        1.79753       -0.90569
B          1.67406        2.49896       -0.26703
B          3.11757        1.69675       -0.23755
B          4.56330        0.86032        0.24129
B          4.43104        2.42625        0.52563
B          3.09023        3.29669        0.34417
B          1.67416        4.14881        0.34249
B          0.28874        3.39727       -0.35104
B          0.27030        4.78148        0.47848
B         -2.54818        3.42244       -0.03864
B         -1.14278        4.20993        0.20483
B         -2.58789        1.79607       -0.44803
B         -3.92945        2.62567        0.09532
B         -4.02526        0.99205       -0.38558
B         -1.17069        2.60529       -0.59610
B         -1.27504       -2.42256       -0.65463
B          3.19373       -0.01251       -0.65116
B         -1.15843        0.89587       -0.76780
B          4.40637       -2.34375        0.47668
B         -5.30134       -1.54003        0.54159
B         -5.26020        0.08677        0.32414
B         -5.23252        1.85493        0.57691
B         -6.37074        0.95371        1.15868
B         -6.41690       -0.57759        1.15338
B          1.72003        0.91473       -0.84822
B         -0.47426       -3.22161        0.91644
B          0.23778       -1.63496       -0.97301
B          5.82610       -1.57409        0.67358
B          6.01993        0.07646        0.74469
B          5.84971        1.72111        0.76789
B          0.22453       -0.50532       -0.03710
