45
isomer_1606.log	Energy: -111330.2551843
B         -2.64997       -1.63529       -0.39227
B         -2.64419       -3.26905        0.00573
B         -1.23886       -4.09832        0.25904
B          0.21960       -3.27408       -0.29876
B         -1.18903       -0.74877       -0.70632
B          1.68573       -0.78314       -0.78848
B          1.60812       -4.05387        0.40001
B         -4.10750       -0.75845       -0.32974
B          1.60376       -2.38111       -0.21041
B         -4.05067       -2.44541        0.14560
B          0.18223       -4.71396        0.54527
B          3.04117       -3.20872        0.40658
B          3.07044       -1.59361       -0.17756
B          4.53078       -0.77742        0.31167
B          0.25505        1.77416       -0.88437
B          1.63794        2.47419       -0.26443
B          3.09340        1.66705       -0.21385
B          4.54217        0.84148        0.29365
B          4.38530        2.40290        0.52134
B          3.08695        3.29500        0.33421
B          1.66594        4.15988        0.30861
B          0.26647        3.38437       -0.37286
B          0.24950        4.84305        0.43892
B         -2.59706        3.42642       -0.06878
B         -1.18016        4.24125        0.16624
B         -2.62590        1.78445       -0.43033
B         -4.01498        2.62598        0.08916
B         -4.09561        0.92982       -0.34852
B         -1.18984        2.59681       -0.60054
B         -1.22551       -2.47137       -0.54414
B          3.16496       -0.06828       -0.59111
B         -1.17763        0.87068       -0.72434
B          4.35198       -2.33103        0.57402
B         -5.36976       -1.62582        0.63918
B         -5.35517        0.00258        0.38712
B         -5.34539        1.83622        0.60065
B         -6.51803        0.89639        1.21215
B         -6.52896       -0.65620        1.22943
B          1.69731        0.86275       -0.80679
B         -0.21330       -2.59266       -0.91722
B          0.23076       -1.67566       -0.84598
B          5.86533       -1.62826        0.78196
B          6.07237        0.08418        0.82812
B          5.88677        1.81546        0.81424
B          0.92351       -0.02458       -0.77613
