45
isomer_1607.log	Energy: -111683.1832610
B         -2.55396       -1.68707       -0.51182
B         -2.54838       -3.32679       -0.13914
B         -1.14340       -4.15859        0.10769
B          0.31677       -3.32448       -0.43064
B         -1.09249       -0.79445       -0.80546
B          1.78265       -0.82491       -0.87504
B          1.70287       -4.11372        0.26229
B         -4.01262       -0.81263       -0.44236
B          1.69963       -2.43172       -0.32216
B         -3.95629       -2.50671        0.00706
B          0.27699       -4.77729        0.39082
B          3.13504       -3.26746        0.28847
B          3.16537       -1.64348       -0.27046
B          4.62266       -0.83363        0.23800
B          0.34989        1.73226       -0.93785
B          1.72926        2.42387       -0.30085
B          3.18527        1.61737       -0.25614
B          4.63255        0.78536        0.24510
B          4.47311        2.34293        0.49623
B          3.17474        3.23664        0.31702
B          1.75300        4.10051        0.29835
B          0.35740        3.33436       -0.40141
B          0.33531        4.78028        0.43277
B         -2.50752        3.36907       -0.10975
B         -1.09250        4.18147        0.14430
B         -2.53309        1.73288       -0.49681
B         -3.92534        2.56498        0.02932
B         -4.00232        0.87573       -0.43495
B         -1.09708        2.54908       -0.64789
B         -1.12800       -2.51938       -0.67014
B          3.26026       -0.11183       -0.65990
B         -1.08261        0.82510       -0.79835
B          4.44421       -2.39127        0.47545
B         -5.27842       -1.69606        0.50726
B         -5.26428       -0.06394        0.28052
B         -5.25729        1.76618        0.52245
B         -6.43176        0.81591        1.11398
B         -6.44123       -0.73677        1.10717
B          1.79269        0.82107       -0.86782
B         -1.54825       -0.54920        2.23198
B          0.32884       -1.71777       -0.95299
B          5.95591       -1.69043        0.70113
B          6.16105        0.02129        0.77474
B          5.97380        1.75240        0.78683
B         -1.71245        0.35084       -0.42700
