45
isomer_1608.log	Energy: -113458.7472774
B          2.56854       -1.60760        0.43892
B          2.52451       -3.31317       -0.04863
B          1.22690       -4.12537        0.18794
B         -0.23184       -3.33108        0.94059
B          1.21656       -0.74078        0.83466
B         -1.58028       -0.75449        0.52102
B         -1.55457       -4.14061       -0.00925
B          3.89486       -0.85318        0.10497
B         -1.40622       -2.41320        0.04432
B          3.80554       -2.45222       -0.31083
B         -0.18000       -4.71667        0.07621
B         -2.87172       -3.28602       -0.30439
B         -2.99914       -1.71886        0.10866
B         -4.46219       -0.86900       -0.10759
B         -0.32633        1.81916        1.20986
B         -1.71039        2.56915        0.47576
B         -3.08837        1.74586        0.22374
B         -4.36123        0.78690       -0.39643
B         -4.33588        2.46425       -0.76372
B         -3.01644        3.32178       -0.26885
B         -1.64832        4.15808       -0.20078
B         -0.27480        3.43674        0.65179
B         -0.22461        4.70721       -0.31783
B          2.53730        3.38273        0.05364
B          1.18855        4.14678       -0.02203
B          2.54869        1.66227        0.63360
B          3.79825        2.51480       -0.20181
B          3.90575        0.91319        0.15359
B          1.20050        2.57740        0.74471
B          1.08718       -2.40798        0.25812
B         -3.15079       -0.00066        0.50167
B          1.20235        0.93731        1.06843
B         -4.20681       -2.50229       -0.76466
B          5.11983       -1.60848       -0.86748
B          5.15307        0.03705       -0.44817
B          5.09246        1.69079       -0.77179
B          6.12664        0.79788       -1.52059
B          6.13325       -0.69883       -1.55404
B         -1.74957        0.92400        0.98618
B         -0.09935       -1.25300       -0.23246
B         -0.28809       -1.73535        1.45957
B         -5.31273       -1.56327       -1.26398
B         -5.57428       -0.04118       -1.27023
B         -5.42966        1.53584       -1.27684
B         -0.24715        0.00413        1.24444
