45
isomer_1609.log	Energy: -112406.7796531
B          2.45787        1.81500       -0.47117
B          2.40637        3.44945       -0.07935
B          0.97870        4.23838        0.17785
B         -0.45781        3.36978       -0.36951
B          1.02190        0.88502       -0.77452
B         -1.85300        0.83522       -0.84241
B         -1.86505        4.11149        0.33324
B          3.94065        0.98128       -0.41260
B         -1.81487        2.43718       -0.27083
B          3.83696        2.66774        0.05660
B         -0.45833        4.81345        0.46885
B         -3.27278        3.22494        0.35020
B         -3.25777        1.60738       -0.22765
B         -4.69125        0.75089        0.27199
B         -0.34880       -1.67963       -0.93575
B         -1.70762       -2.41724       -0.30624
B         -3.18575       -1.65269       -0.25143
B         -4.65549       -0.86771        0.26018
B         -4.45202       -2.42299        0.49301
B         -3.12912       -3.27759        0.30277
B         -1.68362       -4.10076        0.27334
B         -0.31073       -3.28745       -0.41807
B         -0.24723       -4.74181        0.39915
B          2.55427       -3.24478       -0.12818
B          1.16291       -4.09966        0.11703
B          2.53341       -1.60412       -0.49611
B          3.94898       -2.40272        0.01962
B          3.97795       -0.70667       -0.42491
B          1.12085       -2.45866       -0.65604
B          1.00890        2.60857       -0.61908
B         -3.30976        0.07831       -0.63492
B          1.05767       -0.73413       -0.78633
B         -4.55659        2.31007        0.52754
B          5.18180        1.88891        0.54668
B          5.21349        0.25979        0.30089
B          5.25827       -1.57249        0.52143
B          6.40597       -0.59646        1.12347
B          6.37167        0.95584        1.13480
B         -1.81665       -0.81036       -0.85441
B          3.71644       -1.78569        0.79095
B         -0.42500        1.76956       -0.91059
B         -6.04774        1.56430        0.74573
B         -6.20450       -0.15326        0.79943
B         -5.96853       -1.87843        0.79120
B          1.56500       -0.12724        0.06418
