45
isomer_0161.log	Energy: -111990.0692524
B          2.50397        1.83092       -0.54556
B          2.46892        3.45477       -0.11024
B          1.05010        4.24657        0.18442
B         -0.39893        3.40278       -0.36872
B          1.05785        0.91933       -0.85641
B         -1.81793        0.89141       -0.89179
B         -1.79251        4.13546        0.36983
B          3.98122        0.98562       -0.52641
B         -1.76152        2.47740       -0.27870
B          3.89525        2.65977       -0.01175
B         -0.37924        4.82376        0.50733
B         -3.20637        3.25862        0.37997
B         -3.20983        1.65683       -0.24044
B         -4.64364        0.79746        0.25327
B         -0.33327       -1.63054       -1.06904
B         -1.69006       -2.37502       -0.44325
B         -3.16185       -1.60189       -0.35094
B         -4.61982       -0.82047        0.19841
B         -4.42500       -2.38274        0.38778
B         -3.11065       -3.24122        0.15955
B         -1.67163       -4.07339        0.09145
B         -0.30093       -3.25170       -0.59438
B         -0.23859       -4.72756        0.18344
B          2.56746       -3.23671       -0.33715
B          1.17284       -4.08803       -0.09822
B          2.55430       -1.58678       -0.66146
B          3.96988       -2.40860       -0.18363
B          4.00606       -0.70164       -0.58363
B          1.13379       -2.42693       -0.82724
B          1.05920        2.63822       -0.65547
B         -3.27767        0.13947       -0.68721
B          1.08169       -0.69916       -0.91130
B         -4.49467        2.34837        0.54821
B          5.23996        1.85889        0.44179
B          5.25693        0.23666        0.15281
B          5.29091       -1.60108        0.32446
B          6.45257       -0.64934        0.93848
B          6.42972        0.90233        0.99110
B         -1.79371       -0.75350       -0.94757
B          1.76081       -1.75270        3.75261
B         -0.38405        1.81723       -0.95212
B         -5.98860        1.60752        0.76419
B         -6.15724       -0.10973        0.77446
B         -5.93396       -1.83568        0.71801
B          1.85827       -1.13500        1.01103
