45
isomer_1610.log	Energy: -113212.4715339
B         -2.48725        1.64326        0.45245
B         -2.44867        3.35795       -0.17440
B         -1.08603        4.05837       -0.44336
B          0.37774        3.34221        0.17395
B         -1.03066        0.86670        0.71486
B          1.78022        0.87237        0.75130
B          1.75986        4.06118       -0.49020
B         -3.90426        1.00428        0.43389
B          1.84206        2.50970        0.32535
B         -3.79698        2.57883       -0.06208
B          0.36389        4.61980       -0.74904
B          3.21148        3.25964       -0.28542
B          3.28134        1.71024        0.32593
B          4.74234        0.81800        0.25551
B          0.32581       -1.51382        1.11812
B          1.63879       -2.30770        0.39973
B          3.17010       -1.60992        0.41210
B          4.64773       -0.83862        0.23972
B          4.41155       -2.48339       -0.34233
B          2.95209       -3.15324       -0.17703
B          1.38738       -3.68779       -0.41744
B         -0.05036       -3.29095        0.78782
B         -0.07488       -4.02849       -0.76609
B         -2.77612       -2.99862       -0.81423
B         -1.45340       -3.65869       -1.21233
B         -2.59013       -1.67130        0.58752
B         -3.98440       -2.22805       -0.30819
B         -3.97424       -0.72865        0.38389
B         -1.29947       -2.26289       -0.32320
B         -1.07402        2.48331        0.29670
B          3.34654        0.05831        0.86654
B         -1.13544       -0.72091        0.75010
B          4.54874        2.41768       -0.55396
B         -5.26075        1.86798       -0.25320
B         -5.31802        0.20167        0.17197
B         -5.36168       -1.37271       -0.36520
B         -6.47987       -0.39158       -0.82393
B         -6.44326        1.09280       -0.72515
B          1.73697       -0.69395        0.90119
B         -1.17233       -2.28331        1.42509
B          0.37327        1.69208        0.76910
B          5.58138        1.39618       -1.00401
B          5.82480       -0.12483       -0.83771
B          5.61016       -1.64498       -0.78469
B          0.28798       -2.21813       -0.62964
