45
isomer_1611.log	Energy: -112337.4435942
B          2.59470       -1.60204        0.37736
B          2.60902       -3.23366       -0.02910
B          1.21377       -4.08074       -0.27917
B         -0.25274       -3.27938        0.29075
B          1.12354       -0.73718        0.70386
B         -1.75000       -0.81123        0.80127
B         -1.63428       -4.07446       -0.40460
B          4.03977       -0.70506        0.31156
B         -1.64940       -2.40496        0.21447
B          4.00336       -2.39018       -0.17223
B         -0.20033       -4.71426       -0.56095
B         -3.07873       -3.24894       -0.39908
B         -3.12684       -1.63741        0.19360
B         -4.60080       -0.83874       -0.28353
B         -0.35381        1.76485        0.90279
B         -1.74947        2.44909        0.29393
B         -3.19404        1.62241        0.24697
B         -4.63417        0.77974       -0.25703
B         -4.49984        2.34430       -0.47744
B         -3.21277        3.25309       -0.29264
B         -1.80357        4.13716       -0.27018
B         -0.38997        3.37735        0.39972
B         -0.39730        4.84027       -0.40454
B          2.47103        3.46007        0.08048
B          1.04189        4.25667       -0.14268
B          2.52421        1.81682        0.43333
B          3.89884        2.67989       -0.08923
B          4.00498        0.98277        0.33919
B          1.07816        2.60860        0.61548
B          1.18261       -2.45826        0.53253
B         -3.23989       -0.11564        0.61558
B          1.09016        0.88186        0.73037
B         -4.40228       -2.38840       -0.55491
B          5.30845       -1.55013       -0.66862
B          5.27303        0.07661       -0.40802
B          5.23710        1.91101       -0.61196
B          6.41910        0.99043       -1.23463
B          6.45109       -0.56175       -1.26004
B         -1.78392        0.83423        0.82821
B          1.53237       -2.31162        1.63033
B         -0.28271       -1.68408        0.84633
B         -5.92617       -1.70531       -0.75106
B         -6.15679        0.00436       -0.78720
B         -5.99473        1.73792       -0.76532
B          1.21736       -0.27607       -0.28396
