45
isomer_1612.log	Energy: -113390.9982766
B         -1.97307       -1.40897        0.02025
B         -2.55738       -3.09946       -0.33974
B         -1.47859       -4.26407       -0.36354
B          0.07999       -3.33211       -1.00091
B         -0.85078       -0.54269       -1.12866
B          1.10370       -0.64965       -0.82053
B          1.42230       -4.04213        0.01704
B         -3.23386       -0.54794        0.69760
B          1.44863       -2.35306       -0.56113
B         -3.58861       -2.14068        0.45066
B         -0.06197       -4.57746        0.08108
B          2.70423       -3.23670        0.13399
B          2.86905       -1.59028       -0.32941
B          4.19103       -0.84530        0.32834
B          0.35765        1.77771       -1.14631
B          1.72439        2.54295       -0.47961
B          3.12350        1.71372       -0.25093
B          4.42150        0.81233        0.31972
B          4.25333        2.43299        0.88009
B          3.03392        3.30709        0.27126
B          1.71956        4.18056        0.14298
B          0.33154        3.48533       -0.69180
B          0.31728        4.85169        0.12933
B         -2.44662        3.52746       -0.20304
B         -1.06312        4.31391       -0.23011
B         -2.46957        1.87878       -0.70733
B         -3.62542        2.67774        0.22737
B         -3.44347        1.01122        0.21130
B         -1.08530        2.64518       -1.04012
B         -1.35180       -2.31064       -1.31642
B          3.10890        0.04029       -0.57398
B         -1.16623        1.03261       -1.24574
B          4.01816       -2.45848        0.74975
B         -4.66066       -1.43175        1.31465
B         -4.75725        0.07982        0.57769
B         -4.96792        1.77415        0.64068
B         -6.07769        0.91931        1.17388
B         -5.85110       -0.47520        1.66256
B          1.67973        0.88647       -0.87464
B         -0.94504       -2.92434        0.45842
B          0.21173       -1.81473       -1.71379
B          5.10947       -1.63686        1.38398
B          5.35848       -0.10280        1.49416
B          5.20925        1.43291        1.55709
B         -0.14185       -1.53896        0.09383
