45
isomer_1615.log	Energy: -113493.0384140
B          2.64159        1.63350       -0.68101
B          2.66161        3.32746       -0.12332
B          1.33068        4.15606       -0.01926
B         -0.12536        3.43461       -0.56893
B          1.30118        0.85165       -1.19111
B         -1.61759        0.94803       -0.85168
B         -1.47396        4.24504        0.21179
B          3.93131        0.82854       -0.19096
B         -1.58766        2.61781       -0.45431
B          3.93002        2.47022        0.08442
B         -0.04609        4.80133        0.25892
B         -2.85434        3.44275        0.27427
B         -2.99139        1.84487       -0.19034
B         -4.37506        1.00309        0.27210
B         -0.33215       -1.74713       -1.08016
B         -1.48969       -2.33458        0.08454
B         -3.04609       -1.58775       -0.21643
B         -4.40138       -0.63809        0.28156
B         -4.29136       -2.30831        0.75141
B         -3.02003       -3.14448        0.18605
B         -1.70856       -4.05468       -0.09723
B         -0.39128       -3.44799       -1.19191
B         -0.35924       -4.73817       -0.04550
B          2.18117       -3.15343        0.27947
B          1.04622       -4.17907       -0.04810
B          2.46418       -1.66742       -0.54581
B          3.53682       -2.33865        0.56020
B          3.82102       -0.88243       -0.07946
B          1.11068       -2.58756       -0.93755
B          1.31341        2.55102       -0.85530
B         -3.16499        0.14626       -0.54248
B          1.25197       -0.78190       -1.14346
B         -4.19670        2.64837        0.79152
B          5.14346        1.61106        0.75835
B          5.13573       -0.04804        0.45904
B          4.92204       -1.64999        1.02689
B          5.94832       -0.77204        1.71819
B          6.03106        0.71383        1.62216
B         -1.64964       -0.72851       -0.80246
B         -0.02516       -2.95723        0.49677
B         -0.21404        1.85972       -1.14451
B         -5.27604        1.75158        1.35346
B         -5.49975        0.18717        1.35218
B         -5.36568       -1.36507        1.31350
B         -0.19924        0.03855       -1.13550
