45
isomer_1616.log	Energy: -111830.2938657
B         -2.62211       -1.59404       -0.39359
B         -2.63425       -3.22707        0.00721
B         -1.23789       -4.07295        0.25515
B          0.22775       -3.26746       -0.31114
B         -1.15204       -0.72587       -0.71624
B          1.72165       -0.79535       -0.81226
B          1.61007       -4.06290        0.38225
B         -4.06855       -0.69942       -0.32551
B          1.62308       -2.39125       -0.23103
B         -4.02992       -2.38616        0.15246
B          0.17699       -4.70536        0.53555
B          3.05331       -3.23524        0.38041
B          3.09937       -1.62159       -0.20666
B          4.57188       -0.82241        0.27408
B          0.32172        1.77900       -0.90565
B          1.71601        2.46319       -0.29362
B          3.16178        1.63849       -0.24869
B          4.60287        0.79620        0.25321
B          4.46610        2.35979        0.47896
B          3.17779        3.26731        0.29658
B          1.76729        4.14937        0.27636
B          0.35520        3.38980       -0.39697
B          0.35992        4.84994        0.41235
B         -2.50610        3.46719       -0.07910
B         -1.07827        4.26512        0.14764
B         -2.55665        1.82510       -0.43767
B         -3.93285        2.68432        0.08709
B         -4.03623        0.98854       -0.34727
B         -1.11166        2.61963       -0.61624
B         -1.20867       -2.44763       -0.55091
B          3.21041       -0.09821       -0.62329
B         -1.12105        0.89329       -0.73711
B          4.37549       -2.37329        0.53999
B         -5.33653       -1.54975        0.65101
B         -5.30337        0.07793        0.39607
B         -5.27027        1.91166        0.60638
B         -6.45125        0.98719        1.22518
B         -6.48097       -0.56512        1.24519
B          1.75316        0.85024       -0.83347
B         -1.49802       -2.38782       -1.27447
B          0.25568       -1.67020       -0.86117
B          5.89826       -1.68864        0.73938
B          6.12632        0.02124        0.78157
B          5.96172        1.75462        0.76560
B          0.04285       -0.65145        0.31238
