45
isomer_1618.log	Energy: -113420.3781839
B         -2.67929        1.58451        0.72982
B         -2.71218        3.19171        0.07636
B         -1.36775        4.09461       -0.04069
B          0.11622        3.42688        0.57689
B         -1.21590        0.78439        1.00939
B          1.47777        0.82128        0.13760
B          1.43204        4.18140       -0.41348
B         -3.99174        0.69034        0.30343
B          1.51926        2.59568        0.16572
B         -3.96869        2.27195       -0.09596
B         -0.02847        4.68463       -0.43262
B          2.80949        3.37572       -0.51317
B          2.92480        1.73926       -0.08024
B          4.44468        1.02661       -0.07330
B          0.33407       -1.68619        0.77401
B          1.85601       -2.43791        0.58402
B          3.19949       -1.54125        0.52562
B          4.54540       -0.66631        0.03037
B          4.57664       -2.36857       -0.33664
B          3.22395       -3.17526        0.02595
B          1.89617       -4.07450       -0.12656
B          0.42089       -3.29312        0.25002
B          0.51049       -4.72747       -0.40206
B         -2.36915       -3.35231       -0.30565
B         -0.92864       -4.13823       -0.34374
B         -2.50632       -1.74978        0.27706
B         -3.79126       -2.59269       -0.39460
B         -3.88589       -0.98606       -0.00157
B         -1.10156       -2.55448        0.37194
B         -1.31708        2.51826        0.65736
B          3.14856        0.12896        0.59532
B         -1.18921       -0.80280        0.71134
B          4.19308        2.54615       -0.89964
B         -5.36086        1.44451       -0.44451
B         -5.31468       -0.21097       -0.12637
B         -5.16767       -1.80561       -0.78577
B         -6.28215       -0.88587       -1.28629
B         -6.43791        0.58916       -1.06672
B          1.68619       -0.68493        1.10077
B          0.27830        0.11371        1.61492
B          0.22075        1.76702        0.92944
B          5.33252        1.63071       -1.25671
B          5.67074        0.10839       -1.03155
B          5.62313       -1.43391       -0.88513
B          0.17575       -0.14762       -0.10438
