45
isomer_0162.log	Energy: -113420.5891495
B         -2.67319        1.60168        0.71856
B         -2.70180        3.20375        0.06752
B         -1.35190        4.10710       -0.03933
B          0.12496        3.42858        0.57484
B         -1.21625        0.78945        1.00749
B          1.48261        0.82027        0.13708
B          1.44781        4.18210       -0.40631
B         -3.96998        0.69680        0.25294
B          1.52836        2.59445        0.16704
B         -3.95842        2.28736       -0.11198
B         -0.01146        4.69508       -0.42488
B          2.82074        3.37097       -0.50796
B          2.93280        1.73339       -0.07335
B          4.44844        1.01568       -0.07031
B          0.32807       -1.68267        0.75928
B          1.84855       -2.43968        0.57834
B          3.19595       -1.54743        0.52865
B          4.54580       -0.67747        0.03952
B          4.57138       -2.38120       -0.33108
B          3.21702       -3.18372        0.02905
B          1.88766       -4.07708       -0.12842
B          0.41174       -3.28876        0.23682
B          0.49861       -4.72895       -0.40107
B         -2.38270       -3.35421       -0.29748
B         -0.93955       -4.14116       -0.34141
B         -2.50938       -1.74835        0.26921
B         -3.80507       -2.59165       -0.38627
B         -3.88260       -0.97696       -0.02180
B         -1.11040       -2.55370        0.37060
B         -1.30757        2.52599        0.65701
B          3.14975        0.12085        0.59968
B         -1.19355       -0.79614        0.69653
B          4.20239        2.53532       -0.89576
B         -5.35312        1.45179       -0.45489
B         -5.31813       -0.20263       -0.10657
B         -5.18682       -1.80666       -0.75733
B         -6.30803       -0.88859       -1.24276
B         -6.44483        0.59210       -1.04459
B          1.68151       -0.68825        1.09781
B          0.27573        0.11374        1.60983
B          0.22407        1.76672        0.92114
B          5.33779        1.61644       -1.25452
B          5.67031        0.09258       -1.02833
B          5.61769       -1.44825       -0.88195
B          0.17500       -0.13872       -0.11058
