45
isomer_1623.log	Energy: -113390.9986367
B         -2.46843        1.87919        0.70604
B         -2.44548        3.52803        0.20177
B         -1.06168        4.31413        0.22931
B          0.33272        3.48557        0.69191
B         -1.16556        1.03333        1.24587
B          1.67986        0.88611        0.87472
B          1.72106        4.18011       -0.14299
B         -3.44285        1.01188       -0.21215
B          1.72547        2.54289        0.48057
B         -3.62439        2.67847       -0.22851
B          0.31895        4.85154       -0.12986
B          3.03515        3.30625       -0.27093
B          3.12383        1.71276        0.25072
B          4.42197        0.81116       -0.31915
B          0.21153       -1.81473        1.71352
B          1.44797       -2.35388        0.56108
B          2.86797       -1.59087        0.32818
B          4.19112       -0.84651       -0.32789
B          4.01735       -2.45940       -0.75014
B          2.70297       -3.23739       -0.13505
B          1.42087       -4.04253       -0.01786
B          0.07884       -3.33199        1.00061
B         -0.06360       -4.57734       -0.08132
B         -2.55844       -3.09846        0.34091
B         -1.47995       -4.26362        0.36340
B         -1.97364       -1.40791       -0.02005
B         -3.58980       -2.14000       -0.44967
B         -3.23443       -0.54766       -0.69839
B         -0.94664       -2.92368       -0.45818
B         -1.08455        2.64595        1.04001
B          3.10862        0.03945        0.57376
B         -0.85046       -0.54215        1.12880
B          4.25435        2.43186       -0.87966
B         -4.96735        1.77507       -0.64099
B         -4.75730        0.08077       -0.57727
B         -4.66199       -1.43117       -1.31352
B         -5.85229       -0.47424       -1.66103
B         -6.07811        0.92045       -1.17263
B          1.10396       -0.65017        0.81967
B         -1.35246       -2.30974        1.31662
B          0.35836        1.77807        1.14664
B          5.21046        1.43156       -1.55614
B          5.35921       -0.10421       -1.49322
B          5.10935       -1.63817       -1.38359
B         -0.14256       -1.53880       -0.09393
