45
isomer_1624.log	Energy: -113427.6817390
B         -2.48538       -1.64687       -0.53253
B         -2.80245       -3.29820        0.84179
B         -1.53381       -4.14866        0.91579
B         -0.07346       -3.21599       -0.55711
B         -1.26439       -0.57735       -1.11097
B          1.68454       -0.80586       -0.99651
B          1.30438       -3.99847        0.20233
B         -3.77015       -0.69208       -0.13879
B          1.53631       -2.48481       -0.52874
B         -3.78267       -2.17313        0.50239
B         -0.10506       -4.43007        0.54949
B          2.77305       -3.34200        0.16015
B          3.03620       -1.78380       -0.36878
B          4.47997       -1.00640        0.03416
B          0.44119        1.91895       -1.04569
B          1.88463        2.52559       -0.36294
B          3.22175        1.62591       -0.16618
B          4.58200        0.65509        0.15629
B          4.49399        2.27458        0.81765
B          3.20223        3.20247        0.41750
B          1.87257        4.11464        0.43797
B          0.47001        3.43343       -0.33487
B          0.49139        4.76788        0.54260
B         -2.32378        3.52430        0.06714
B         -0.93658        4.25467        0.24229
B         -2.39376        1.87539       -0.48872
B         -3.68444        2.72401        0.17021
B         -3.74946        1.09070       -0.17138
B         -1.02949        2.72406       -0.71932
B         -1.81479       -3.26163       -0.41019
B          3.30909       -0.07214       -0.71857
B         -1.14231        1.01706       -1.06145
B          4.17505       -2.63059        0.61249
B         -5.16187       -1.34224        0.71545
B         -5.06660        0.27139        0.25854
B         -5.03980        1.91957        0.59320
B         -6.15899        1.05924        1.20574
B         -6.23733       -0.42292        1.22996
B          1.81835        0.88017       -0.88650
B         -1.21012       -2.22310       -1.46782
B          0.27075       -1.62961       -1.26425
B          5.30950       -1.80259        1.16169
B          5.61862       -0.28879        1.21111
B          5.51890        1.26939        1.28494
B          0.27224        0.14884       -0.99954
