45
isomer_1625.log	Energy: -113320.6947198
B         -2.59735        1.63238        0.45778
B         -2.62916        3.35579       -0.02112
B         -1.28433        4.14012       -0.12152
B          0.19585        3.40639        0.52380
B         -1.21874        0.89285        0.87117
B          1.69667        0.88312        0.90836
B          1.56236        4.15301       -0.29324
B         -3.97789        0.87359        0.18148
B          1.63643        2.53990        0.36637
B         -3.92184        2.47921       -0.20064
B          0.13552        4.69323       -0.41686
B          2.95139        3.33883       -0.31332
B          3.06478        1.77378        0.21993
B          4.47308        0.89426       -0.22854
B          0.43350       -1.74954        0.79946
B          1.75626       -2.51208        0.17969
B          3.16341       -1.68441        0.14603
B          4.54888       -0.77924       -0.16299
B          4.42014       -2.39741       -0.79816
B          3.05921       -3.24767       -0.45056
B          1.64874       -4.12848       -0.42579
B          0.30191       -3.36247        0.37843
B          0.22794       -4.70271       -0.46232
B         -2.52973       -3.29670       -0.05343
B         -1.16705       -4.08975       -0.12656
B         -2.53742       -1.60109        0.35871
B         -3.86090       -2.44097       -0.22787
B         -3.96762       -0.86091        0.14679
B         -1.19268       -2.54058        0.76781
B         -1.26283        2.54916        0.63369
B          3.23429        0.04438        0.54327
B         -1.21510       -0.83137        0.85811
B          4.34631        2.54824       -0.66811
B         -5.20345        1.66188       -0.77263
B         -5.17544        0.00717       -0.51428
B         -5.17928       -1.64177       -0.81486
B         -6.20054       -0.74423       -1.54840
B         -6.21504        0.75732       -1.52816
B          1.74303       -0.78214        0.77670
B          0.19776        0.02816        1.43802
B          0.25401        1.77757        1.00696
B          5.50552        1.66898       -1.14370
B          5.69575        0.11122       -1.18658
B          5.50555       -1.43187       -1.26228
B         -0.42191       -1.38517        2.17936
