45
isomer_1627.log	Energy: -113432.8027258
B          2.62947       -1.69798        0.07168
B          2.60478       -3.30242       -0.08632
B          1.22645       -4.02227       -0.15233
B         -0.19544       -3.23837        0.30265
B          1.86529       -0.37087        0.52836
B         -1.74467       -0.80170        0.79146
B         -1.59018       -4.10847       -0.31010
B          3.90432       -0.82460        0.00020
B         -1.70695       -2.49281        0.49676
B          4.00194       -2.51618       -0.27843
B         -0.16529       -4.65177       -0.41730
B         -2.98507       -3.34974       -0.25281
B         -3.13473       -1.72934        0.21404
B         -4.60695       -0.92631       -0.01619
B         -0.38519        1.86184        1.14063
B         -1.78708        2.54106        0.42428
B         -3.15746        1.66966        0.21649
B         -4.46247        0.71978       -0.36688
B         -4.39422        2.36913       -0.82708
B         -3.06880        3.22929       -0.35567
B         -1.73649        4.11855       -0.30200
B         -0.36739        3.42782        0.61270
B         -0.32922        4.68156       -0.41950
B          2.41654        3.29505       -0.13019
B          1.07236        4.13266       -0.17882
B          2.44444        1.61898        0.44782
B          3.75201        2.45931       -0.30842
B          3.83584        0.87340        0.03938
B          1.10899        2.61320        0.62891
B          1.24007       -2.34089        0.72100
B         -3.30286       -0.01520        0.60366
B          1.11092        0.94053        0.97824
B         -4.31085       -2.56717       -0.68092
B          5.29828       -1.60256       -0.73784
B          5.16782        0.05603       -0.44619
B          5.14678        1.73434       -0.71631
B          6.29851        0.87852       -1.28992
B          6.36076       -0.62943       -1.31577
B         -1.80148        0.83172        1.01052
B         -0.33806        0.06543        1.42304
B         -0.35592       -1.74164        1.06238
B         -5.35782       -1.61432       -1.25918
B         -5.66001       -0.10211       -1.27946
B         -5.50765        1.46099       -1.31052
B          0.96666       -0.93269        1.72397
