45
isomer_1628.log	Energy: -113451.4374422
B          2.24927       -1.14508        0.47211
B          2.24902       -2.66081       -0.78142
B          0.91944       -3.36980       -1.19855
B         -0.47679       -3.30121       -0.09318
B          0.88659       -1.15077        1.41006
B         -1.83610       -0.88327        1.25636
B         -1.91267       -3.57235       -1.06290
B          3.88403       -0.65566        0.40100
B         -1.91338       -2.45415        0.26493
B          3.59498       -2.06572       -0.36538
B         -0.51076       -3.83835       -1.58536
B         -3.29327       -2.94071       -0.52326
B         -3.23968       -1.51377        0.29573
B         -4.55729       -0.49337       -0.04272
B         -0.06611        1.50401        0.67218
B         -1.46898        2.43924        0.24718
B         -2.98852        1.83786        0.34408
B         -4.56847        1.15667        0.32492
B         -4.24165        2.73100       -0.41729
B         -2.75450        3.34731       -0.32145
B         -1.25375        3.91791       -0.62989
B          0.11140        3.04669        0.03739
B          0.17953        4.20439       -1.04323
B          2.83038        2.60558       -0.68242
B          1.53996        3.44766       -0.83316
B          2.86098        0.92427        0.35547
B          4.15936        2.01109       -0.33219
B          4.42864        0.94355        0.83032
B          1.45941        1.87635       -0.08773
B          1.00111       -2.37037        0.15855
B         -3.22547        0.15401        0.78274
B          1.31519        0.38157        0.62652
B         -4.69729       -2.09807       -0.55719
B          5.09875       -1.63302       -0.42384
B          5.53706       -0.16050        0.32806
B          5.71319        1.44655       -0.13409
B          6.76678        0.47758       -0.63604
B          6.42345       -0.94204       -0.82012
B         -1.64708        0.81939        0.76839
B         -0.25251        0.15551        1.59517
B         -0.47388       -2.23008        1.17002
B         -5.84538       -1.13552       -0.73923
B         -5.87582        0.43296       -0.67313
B         -5.49579        1.92851       -0.72091
B         -0.61338       -1.17504        2.36350
