45
isomer_1629.log	Energy: -113215.8470793
B         -2.44951       -1.74763       -0.16781
B         -2.25759       -3.29353        0.45564
B         -0.85147       -4.06590        0.36962
B          0.48456       -3.28389       -0.53864
B         -1.20985       -0.98481       -0.92190
B          2.25128       -0.63851       -1.41748
B          1.85837       -4.00351        0.09581
B         -3.81746       -0.92999        0.07548
B          1.82099       -2.27942       -0.89300
B         -3.65676       -2.48001        0.71599
B          0.53245       -4.66076        0.34726
B          3.05353       -2.98606        0.11576
B          3.32479       -1.51935       -0.39670
B          4.59459       -0.58441        0.39004
B          0.33554        1.69709       -1.08960
B          1.63960        2.55793       -0.53496
B          3.06569        1.86041       -0.12433
B          4.48363        1.08001        0.44526
B          4.07804        2.65393        1.03531
B          2.77743        3.39729        0.40301
B          1.36325        4.07850        0.33512
B          0.04317        3.24855       -0.48068
B         -0.08772        4.55888        0.40732
B         -2.66527        3.16546       -0.38991
B         -1.39920        3.94160       -0.00979
B         -2.81887        1.69317       -0.71115
B         -4.18174        2.36044       -0.12203
B         -3.96875        0.68773       -0.25985
B         -1.28459        2.07759       -0.70964
B         -1.11718       -2.63609       -0.58722
B          3.38854        0.23422       -0.54476
B         -2.21832        0.16531       -0.66741
B          4.29679       -2.19987        0.81958
B         -5.01111       -1.73774        1.16264
B         -5.07261       -0.08409        0.68687
B         -5.37053        1.60771        0.54863
B         -6.33498        0.67608        1.35131
B         -6.18157       -0.80700        1.60188
B          1.86904        0.93191       -1.07065
B         -0.51460        0.43933       -1.14341
B          0.20126       -1.78274       -1.28726
B          5.31946       -1.33284        1.57011
B          5.40196        0.21985        1.68805
B          5.08463        1.76792        1.74036
B          1.20111       -1.06277       -2.29289
