45
isomer_0163.log	Energy: -112699.6754526
B         -2.61797       -1.63970       -0.44479
B         -2.61495       -3.27960       -0.07288
B         -1.21097       -4.11552        0.16562
B          0.24850       -3.28532       -0.38060
B         -1.15564       -0.75111       -0.74629
B          1.71895       -0.78972       -0.83218
B          1.63625       -4.07883        0.30411
B         -4.07372       -0.76114       -0.36667
B          1.63449       -2.39655       -0.27956
B         -4.01967       -2.45558        0.08166
B          0.20923       -4.73840        0.44041
B          3.07095       -3.23666        0.32255
B          3.10274       -1.61251       -0.23580
B          4.56519       -0.80706        0.26475
B          0.29317        1.77154       -0.88571
B          1.67809        2.45892       -0.25623
B          3.13202        1.64826       -0.22013
B          4.57973        0.81190        0.27253
B          4.42616        2.36979        0.52525
B          3.12935        3.26728        0.35381
B          1.71000        4.13521        0.34358
B          0.30828        3.37336       -0.34861
B          0.29504        4.81895        0.48634
B         -2.55483        3.41610       -0.04071
B         -1.13609        4.22434        0.20569
B         -2.58726        1.78017       -0.42836
B         -3.97413        2.61599        0.10603
B         -4.05856        0.92719       -0.35855
B         -1.14980        2.59235       -0.58720
B         -1.19531       -2.47600       -0.61155
B          3.19979       -0.08096       -0.62509
B         -1.14110        0.86840       -0.73851
B          4.38365       -2.36430        0.50251
B         -5.33662       -1.64140        0.58971
B         -5.31912       -0.00922        0.36362
B         -5.30554        1.82075        0.60634
B         -6.47934        0.87356        1.20409
B         -6.49329       -0.67908        1.19663
B          1.73373        0.85622       -0.82427
B         -0.50254       -1.91604        0.78466
B          0.26219       -1.67840       -0.90229
B          5.89859       -1.66786        0.71994
B          6.10902        0.04322        0.79316
B          5.92679        1.77486        0.80708
B         -0.32546        0.01256       -1.25406
