45
isomer_1630.log	Energy: -112870.2473606
B          2.65968       -1.65189        0.40595
B          2.67091       -3.32064        0.03528
B          1.26442       -4.18406       -0.20362
B         -0.23899       -3.34689        0.33570
B          1.18211       -0.73560        0.69979
B         -1.73570       -0.78175        0.81921
B         -1.63797       -4.12898       -0.33950
B          4.05648       -0.76752        0.33773
B         -1.67643       -2.42202        0.22905
B          4.01272       -2.45779       -0.10800
B         -0.19093       -4.76962       -0.46236
B         -3.06808       -3.26075       -0.35332
B         -3.11334       -1.62970        0.20752
B         -4.56814       -0.79940       -0.27867
B         -0.28760        1.79898        0.86886
B         -1.68238        2.47593        0.24243
B         -3.12745        1.66801        0.20861
B         -4.57319        0.82953       -0.27620
B         -4.43741        2.39720       -0.54643
B         -3.10265        3.27926       -0.36066
B         -1.69088        4.13926       -0.35562
B         -0.29062        3.39377        0.32915
B         -0.28577        4.78978       -0.49289
B          2.56060        3.42238        0.00801
B          1.14618        4.22515       -0.22527
B          2.59652        1.78945        0.39368
B          3.95643        2.59370       -0.14274
B          4.03839        0.93895        0.32461
B          1.17643        2.62586        0.55412
B          1.26405       -2.52770        0.57256
B         -3.20581       -0.06146        0.60898
B          1.17817        0.92455        0.69912
B         -4.42380       -2.38431       -0.53892
B          5.30657       -1.63272       -0.61322
B          5.27262        0.00629       -0.38842
B          5.25034        1.79153       -0.62878
B          6.39565        0.86063       -1.21366
B          6.43327       -0.67000       -1.21252
B         -1.73800        0.87429        0.81174
B          0.44471        0.19614        1.70489
B         -0.29346       -1.66674        0.90245
B         -5.85276       -1.61278       -0.72660
B         -6.04100        0.05608       -0.78795
B         -5.86265        1.70802       -0.79826
B          0.25874       -1.97245       -0.24584
