45
isomer_1631.log	Energy: -113472.6243286
B          2.60793        1.78043       -0.57906
B          2.54753        3.33345       -0.01367
B          1.13865        4.09121        0.26561
B         -0.31673        3.29004       -0.18831
B          1.13752        0.81925       -0.77681
B         -1.80876        0.86175       -0.90778
B         -1.68688        4.06772        0.48563
B          4.00646        0.87892       -0.40349
B         -1.74841        2.42574       -0.24773
B          3.94691        2.52971        0.08763
B         -0.25507        4.65263        0.61899
B         -3.06724        3.26458        0.40920
B         -3.26037        1.76500       -0.26033
B         -4.71086        0.91035       -0.09697
B         -0.54817       -0.52352       -1.11629
B         -1.65588       -2.22733       -0.35818
B         -3.21003       -1.66866       -0.59500
B         -4.62848       -0.78482       -0.02078
B         -4.42835       -2.42301        0.39005
B         -3.03174       -3.17003        0.08700
B         -1.74654       -4.07680        0.12350
B         -0.29536       -3.26519        0.00717
B         -0.33088       -4.77849        0.33413
B          2.55079       -3.36753        0.24431
B          1.13413       -4.23668        0.41926
B          2.53917       -1.74690       -0.40296
B          3.91614       -2.50776        0.25056
B          3.98616       -0.87062       -0.33607
B          1.21827       -2.52614        0.09045
B          1.13012        2.48277       -0.45854
B         -3.45782        0.12683       -0.88452
B          1.02627       -0.71102       -0.45815
B         -4.43854        2.44258        0.75572
B          5.27372        1.70289        0.46153
B          5.36780        0.01234        0.06887
B          5.24909       -1.68137        0.52993
B          6.35672       -0.73889        1.09928
B          6.37852        0.78004        1.05999
B         -2.06740       -0.66321       -1.36867
B          2.61619        0.02537       -0.78730
B         -0.34503        1.62681       -0.76156
B         -5.49669        1.45481        1.19445
B         -5.76939       -0.06830        1.03833
B         -5.62549       -1.60724        0.89524
B         -0.19798       -1.68169        0.10540
