45
isomer_1632.log	Energy: -111487.4072362
B          2.62634       -1.60623        0.40302
B          2.63061       -3.24264        0.01606
B          1.23037       -4.08251       -0.23039
B         -0.23283       -3.26381        0.32315
B          1.16006       -0.72690        0.71239
B         -1.71435       -0.77898        0.79735
B         -1.61696       -4.05711       -0.36910
B          4.07821       -0.72058        0.33326
B         -1.62272       -2.38028        0.23000
B          4.03171       -2.41105       -0.13062
B         -0.18702       -4.70910       -0.51118
B         -3.05536       -3.22114       -0.38009
B         -3.09441       -1.60235        0.19316
B         -4.56032       -0.79878       -0.30026
B         -0.29988        1.78795        0.87470
B         -1.68772        2.47497        0.25128
B         -3.13806        1.65827        0.20745
B         -4.58199        0.82010       -0.29317
B         -4.43525        2.38091       -0.53153
B         -3.14244        3.28250       -0.35159
B         -1.72694        4.15654       -0.33310
B         -0.32198        3.39456        0.35233
B         -0.31498        4.84780       -0.46929
B          2.54096        3.45275        0.04541
B          1.11871        4.25695       -0.19384
B          2.58055        1.81348        0.41801
B          3.96381        2.66028       -0.10840
B          4.05560        0.96767        0.34066
B          1.13950        2.61782        0.58402
B          1.20736       -2.45029        0.56181
B         -3.19827       -0.07488        0.59648
B          1.13838        0.89253        0.71948
B         -4.37187       -2.35295       -0.55228
B          5.34514       -1.58644       -0.63091
B          5.32040        0.04350       -0.38984
B          5.29878        1.87555       -0.61573
B          6.47685        0.93908       -1.22192
B          6.49764       -0.61349       -1.22873
B         -1.73639        0.86689        0.80456
B          0.82983       -2.53676       -0.04329
B         -0.25369       -1.66183        0.85958
B         -5.88983       -1.66124       -0.76361
B         -6.10780        0.04951       -0.82114
B         -5.93320        1.78198       -0.81912
B         -0.04655       -0.48226        1.66497
