45
isomer_1633.log	Energy: -113360.2152630
B         -2.50975        1.72962        0.26718
B         -2.52453        3.39468       -0.10697
B         -1.13898        4.15255       -0.24221
B          0.28144        3.37529        0.36836
B         -1.24576        0.86756        0.86016
B          1.70356        0.86596        0.87281
B          1.67716        4.11286       -0.36010
B         -3.81932        0.91307       -0.14614
B          1.73652        2.52770        0.41770
B         -3.86061        2.56352       -0.28558
B          0.27941        4.70946       -0.51319
B          3.06509        3.26111       -0.30068
B          3.10810        1.69949        0.18990
B          4.48726        0.76059       -0.16884
B          0.26432       -1.60723        1.32282
B          1.56385       -2.63925        0.63322
B          3.02393       -1.73313        0.26079
B          4.56576       -0.87287        0.20168
B          4.31047       -2.42882       -0.59372
B          2.91199       -3.16980       -0.43358
B          1.48661       -3.59598       -0.95800
B          0.18290       -3.60079        0.17102
B          0.07467       -3.67364       -1.42500
B         -2.69002       -3.31825       -0.14088
B         -1.31849       -3.41810       -0.75692
B         -2.41938       -1.74770        0.23027
B         -3.93325       -2.40233       -0.24271
B         -3.79038       -0.78105       -0.13077
B         -1.20514       -2.69920        0.89153
B         -1.19358        2.59647        0.65039
B          3.21368       -0.01195        0.64944
B         -1.25195       -0.75397        0.83317
B          4.46303        2.43745       -0.62453
B         -5.26978        1.74162       -0.53826
B         -5.21265        0.08370       -0.07690
B         -5.28554       -1.54411       -0.51992
B         -6.47641       -0.63882       -0.85562
B         -6.46626        0.86123       -0.84428
B          1.65610       -0.79454        0.71015
B          0.20021       -3.11253        1.68983
B          0.27686        1.82516        1.04074
B          5.62017        1.54710       -0.98132
B          5.78384       -0.01072       -0.94494
B          5.46232       -1.49862       -0.97941
B          0.21257        0.02724        0.90929
