45
isomer_1635.log	Energy: -112460.2732333
B          2.50960        1.77776       -0.49300
B          2.48161        3.41329       -0.10330
B          1.06560        4.22212        0.15654
B         -0.38414        3.37262       -0.38586
B          1.06019        0.86721       -0.79132
B         -1.81530        0.85686       -0.85162
B         -1.77920        4.13456        0.31954
B          3.98093        0.92381       -0.43717
B         -1.75364        2.45891       -0.28235
B          3.90167        2.61216        0.02998
B         -0.36262        4.81729        0.45050
B         -3.19894        3.26748        0.34141
B         -3.20769        1.64909       -0.23425
B         -4.65149        0.81307        0.27031
B         -0.34606       -1.67856       -0.94543
B         -1.71324       -2.39656       -0.31135
B         -3.18056       -1.61168       -0.25373
B         -4.63802       -0.80589        0.26064
B         -4.45534       -2.36350        0.49508
B         -3.14482       -3.23646        0.30255
B         -1.71085       -4.07947        0.27048
B         -0.32874       -3.28606       -0.42564
B         -0.28309       -4.74005        0.39341
B          2.53733       -3.28240       -0.14330
B          1.13500       -4.11773        0.10672
B          2.53806       -1.64210       -0.51343
B          3.94387       -2.45940       -0.00031
B          3.99498       -0.76451       -0.44725
B          1.11346       -2.47736       -0.66849
B          1.07129        2.59099       -0.63822
B         -3.28177        0.12034       -0.63928
B          1.07367       -0.75230       -0.80099
B         -4.49473        2.37059        0.52336
B          5.23696        1.81557        0.51762
B          5.24560        0.18584        0.27399
B          5.26577       -1.64659        0.49693
B          6.42835       -0.68563        1.09463
B          6.41544        0.86702        1.10390
B         -1.80160       -0.78908       -0.86145
B          3.27942       -0.75778        1.30058
B         -0.37477        1.77138       -0.92483
B         -5.99542        1.64569        0.74647
B         -6.17564       -0.06948        0.80295
B         -5.96343       -1.79774        0.79648
B          0.76230       -1.11333        0.09852
