45
isomer_1636.log	Energy: -113473.6314054
B          2.49996       -1.73284        0.55825
B          2.35188       -3.10851       -0.51864
B          0.98270       -3.85368       -0.58391
B         -0.22378       -3.30535        0.54533
B          1.21459       -0.75803        0.73567
B         -1.72707       -0.74453        1.06130
B         -1.76752       -4.09568       -0.15017
B          3.90380       -0.88593        0.23603
B         -1.73668       -2.45455        0.48057
B          3.74442       -2.33948       -0.47284
B         -0.43134       -4.51288       -0.59890
B         -3.09451       -3.23879       -0.08076
B         -3.14195       -1.65619        0.47580
B         -4.37858       -0.71120       -0.21957
B         -0.27014        1.80927        0.87680
B         -1.66371        2.57651        0.38994
B         -3.10672        1.83509        0.20130
B         -4.55029        0.93026       -0.00549
B         -4.34742        2.56243       -0.70423
B         -2.97021        3.36070       -0.41719
B         -1.56044        4.16446       -0.47583
B         -0.20982        3.37610        0.29685
B         -0.13690        4.67935       -0.61455
B          2.60946        3.26903       -0.03599
B          1.27447        4.06945       -0.25884
B          2.60742        1.57368        0.74587
B          3.88817        2.40959       -0.04464
B          4.00769        0.85121        0.43381
B          1.24753        2.48255        0.46691
B          1.25818       -2.75538        1.02166
B         -3.21281        0.12083        0.61171
B          1.19885        0.86831        1.09420
B         -4.47952       -2.38833       -0.41330
B          5.13491       -1.59311       -0.73212
B          5.29085       -0.03469       -0.08530
B          5.27983        1.62458       -0.41500
B          6.33956        0.77755       -1.10235
B          6.25879       -0.68512       -1.27051
B         -1.71196        0.92103        0.79689
B          0.97239       -2.03393       -0.55856
B         -0.26906       -1.58630        0.49811
B         -5.59691       -1.49677       -0.89571
B         -5.73174        0.08435       -1.00181
B         -5.47263        1.60123       -1.12247
B         -0.27375        0.02374        1.25168
