45
isomer_1638.log	Energy: -113496.1293392
B         -2.54158        1.69804        0.51247
B         -2.49060        3.40544        0.06789
B         -1.13606        4.24241       -0.01316
B          0.32042        3.45250        0.47736
B         -1.24770        1.03321        0.97322
B          1.59542        0.81166        0.54711
B          1.68262        4.18964       -0.25287
B         -3.85868        0.83543        0.29353
B          1.65045        2.53471        0.26220
B         -3.79608        2.52308       -0.20780
B          0.29984        4.80745       -0.32231
B          3.04393        3.30150       -0.26486
B          3.07879        1.69904        0.10758
B          4.47029        0.81042       -0.27724
B          0.25947       -1.78484        0.80141
B          1.64534       -2.54410        0.24812
B          3.06695       -1.70228        0.10696
B          4.43822       -0.83180       -0.28328
B          4.43421       -2.53906       -0.59491
B          3.03429       -3.32548       -0.26391
B          1.67126       -4.22119       -0.20684
B          0.31800       -3.45196        0.48990
B          0.27891       -4.84160       -0.27293
B         -2.49997       -3.40265        0.06995
B         -1.15074       -4.26239        0.02448
B         -2.55480       -1.70043        0.53242
B         -3.81989       -2.51510       -0.20498
B         -3.88387       -0.85130        0.30172
B         -1.15774       -2.71912        0.70956
B         -1.15064        2.73932        0.75008
B          3.11122        0.01421        0.38822
B         -1.25355       -1.01650        0.91496
B          4.46974        2.54447       -0.51480
B         -4.99550        1.70728       -0.79156
B         -5.02513        0.01054       -0.54000
B         -5.01955       -1.69518       -0.76508
B         -6.09929       -0.75444       -1.45401
B         -6.08844        0.78470       -1.46409
B          1.59778       -0.83998        0.57744
B         -2.31462        0.08251        0.22955
B          0.30241        1.80340        0.96239
B          5.65597        1.61839       -0.87666
B          5.82690       -0.00349       -0.91166
B          5.63208       -1.61680       -0.92822
B          0.19992       -0.02963        1.06268
