45
isomer_1641.log	Energy: -113441.9607421
B         -2.45328        1.82140        0.47057
B         -2.37669        3.44915       -0.11131
B         -0.98273        4.21451       -0.28235
B          0.43876        3.42669        0.33647
B         -1.14817        0.95854        1.03578
B          1.77646        0.86320        0.73108
B          1.83099        4.13103       -0.42545
B         -3.73389        1.01652       -0.00697
B          1.84615        2.55117        0.45610
B         -3.80058        2.68902       -0.15547
B          0.45123        4.74975       -0.56644
B          3.19144        3.24748       -0.35208
B          3.21455        1.68095        0.16779
B          4.64487        0.73044        0.04592
B          0.27852       -1.65360        1.30414
B          1.55455       -2.48705        0.56626
B          3.02696       -1.74234        0.31862
B          4.41322       -0.90496       -0.21213
B          4.26746       -2.56112       -0.59697
B          2.83180       -3.27063       -0.16904
B          1.38352       -3.97850       -0.24545
B         -0.07365       -3.24172        0.39183
B          0.05336       -4.49824       -0.66564
B         -2.65896       -3.19250       -0.79880
B         -1.38163       -4.10249       -0.81499
B         -2.47343       -1.74129        0.39424
B         -3.73655       -2.13509       -0.65261
B         -3.68618       -0.64672       -0.00334
B         -1.81730       -3.42140        0.58882
B         -1.09051        2.68546        0.57203
B          3.25679       -0.02619        0.65601
B         -1.28393       -0.63333        1.02463
B          4.49705        2.36412       -0.69101
B         -5.13105        1.93325       -0.50660
B         -5.17952        0.23478       -0.07887
B         -5.16349       -1.31732       -0.68519
B         -6.36905       -0.47462       -1.00506
B         -6.24578        1.00727       -1.06394
B          1.68486       -0.78770        1.00763
B         -1.16820       -2.28563        1.41933
B          0.39850        1.88223        0.97197
B          5.51978        1.33133       -1.14776
B          5.69605       -0.20930       -1.10645
B          5.44756       -1.75213       -1.08467
B          0.25013        0.09560        0.96937
