45
isomer_1642.log	Energy: -113658.3706418
B          2.58854       -1.71531        0.47144
B          2.57593       -3.30948       -0.04839
B          1.21153       -4.16523       -0.09425
B         -0.25080       -3.42495        0.59206
B          1.14989       -0.84598        0.75405
B         -1.74475       -0.84097        0.76855
B         -1.61040       -4.19499       -0.21257
B          4.02140       -0.81750        0.26268
B         -1.70167       -2.56139        0.33328
B          3.95403       -2.46698       -0.20406
B         -0.17581       -4.75823       -0.30669
B         -3.00046       -3.37384       -0.26184
B         -3.15031       -1.76543        0.25038
B         -4.57511       -0.93322       -0.10112
B         -0.39982        1.79854        1.09391
B         -1.84409        2.52253        0.51467
B         -3.20653        1.66047        0.28225
B         -4.56492        0.76542       -0.22237
B         -4.46164        2.42609       -0.70893
B         -3.14639        3.25668       -0.25153
B         -1.80384        4.13797       -0.22120
B         -0.39607        3.37503        0.50409
B         -0.40602        4.75562       -0.32795
B          2.40363        3.37460       -0.01783
B          0.99894        4.17560       -0.11804
B          2.47900        1.75599        0.30727
B          3.82948        2.58400       -0.29344
B          3.93955        0.93918        0.15063
B          1.09231        2.58602        0.68245
B          1.19858       -2.55969        0.64643
B         -3.31462       -0.03572        0.63888
B          2.55928        0.03107        0.65372
B         -4.32765       -2.52973       -0.74633
B          5.22968       -1.62371       -0.67505
B          5.26455        0.08774       -0.42663
B          5.11057        1.78287       -0.82345
B          6.21451        0.84766       -1.46800
B          6.27301       -0.67587       -1.40292
B         -1.83887        0.83307        0.95746
B          1.06458        0.84272        0.90361
B         -0.29706       -1.77645        0.87034
B         -5.37507       -1.59226       -1.31743
B         -5.65325       -0.06181       -1.26288
B         -5.53797        1.49107       -1.24245
B         -0.37590       -0.00120        1.11721
