45
isomer_1643.log	Energy: -113419.7626034
B          2.50748       -1.74056        0.28274
B          2.37757       -3.34754       -0.28927
B          0.93141       -4.13654       -0.33058
B         -0.41502       -3.29457        0.26306
B          1.18662       -0.78868        0.68135
B         -1.68945       -0.68947        1.10237
B         -1.89209       -4.07958       -0.11370
B          3.90394       -0.99074        0.03051
B         -1.85778       -2.44068        0.58581
B          3.79826       -2.58929       -0.37421
B         -0.50368       -4.72851       -0.38951
B         -3.22237       -3.18389        0.03327
B         -3.21120       -1.54692        0.54713
B         -4.54961       -0.67939        0.02185
B         -0.21690        1.76384        0.92397
B         -1.52698        2.59442        0.16426
B         -2.94681        1.74998       -0.00635
B         -4.44760        1.01607       -0.10327
B         -4.19378        2.54245       -0.89682
B         -2.82206        3.37891       -0.48548
B         -1.43902        4.18494       -0.39445
B         -0.11573        3.42178        0.57878
B          0.02089        4.69147       -0.41712
B          2.70849        3.18847        0.06900
B          1.36089        4.09422       -0.04033
B          2.68400        1.59090        0.73421
B          3.96687        2.27645       -0.10693
B          4.00090        0.69707        0.29598
B          1.31695        2.51584        0.66968
B          1.10375       -2.54880        0.37191
B         -3.16440        0.12271        0.60930
B          1.21967        0.78854        1.02662
B         -4.56719       -2.37475       -0.35513
B          5.17619       -1.80481       -0.77304
B          5.31926       -0.20324       -0.14205
B          5.35114        1.44849       -0.48116
B          6.41789        0.58875       -1.11794
B          6.28050       -0.89168       -1.30252
B         -1.49243        0.82406        0.17056
B         -0.18915       -0.13527       -0.10597
B         -0.33366       -1.68016        0.76233
B         -5.59110       -1.44002       -0.94477
B         -5.64595        0.10073       -1.08248
B         -5.32388        1.62737       -1.29013
B         -0.27483        0.10762        1.61853
