45
isomer_1644.log	Energy: -113969.6866686
B          3.43794       -0.36695       -1.39629
B          4.23002        0.99473       -0.11934
B          3.13913        2.11257        0.50965
B          1.71683        2.46692       -0.65588
B          1.79620       -0.36259       -1.61032
B         -0.77688        1.12914       -1.11180
B          0.87347        3.82141        0.13333
B          3.94861       -0.84214        0.37050
B          0.04871        2.55963       -0.66011
B          4.94276       -0.33845       -1.09133
B          2.24454        3.38373        0.57155
B         -0.73694        3.91110       -0.02392
B         -1.56660        2.57576       -0.46592
B         -3.16639        2.42013        0.10855
B         -0.78901       -1.78187       -1.45385
B         -2.19570       -1.80279       -0.17891
B         -3.22499       -0.43632       -0.19386
B         -4.08141        1.04203       -0.17483
B         -4.69005       -0.49259        0.57661
B         -3.89911       -1.84971        0.27927
B         -3.08045       -3.26859        0.19559
B         -1.47225       -3.20953       -0.94887
B         -2.10202       -4.47399       -0.01891
B         -0.00423       -2.94613        1.28532
B         -0.56112       -4.33656        0.02817
B          0.97293       -1.71571       -0.90539
B          1.11022       -1.89270        0.94861
B          2.20469       -0.81905        0.03627
B          0.39036       -3.12372       -0.43595
B          2.47927        0.88833       -0.56323
B         -2.47495        1.09002       -0.67438
B          0.03825       -0.35014       -1.60258
B         -2.33638        3.89276        0.39500
B          5.63760       -0.02157        0.17514
B          2.97881        0.55250        1.19424
B          2.52630       -1.18919        1.60830
B          3.77496       -0.64382        2.21685
B          4.88538        0.12725        1.50559
B         -1.42758       -0.31603       -0.47138
B         -1.53430       -3.07850        0.97466
B          0.88244        1.20362       -1.42755
B         -3.76752        3.67146        0.85490
B         -4.68447        2.36874        0.88772
B         -5.20719        0.91676        0.94794
B         -0.47985       -1.46994        0.38084
