45
isomer_1645.log	Energy: -113532.9917411
B         -2.60183       -1.46595       -0.44622
B         -2.85217       -3.09151       -0.57134
B         -1.69532       -3.92601        0.06439
B         -0.05680       -3.24890       -0.39548
B         -1.04103       -0.81319       -0.52636
B          1.69717       -0.96957       -1.02886
B          1.05848       -3.71182        0.91331
B         -3.99113       -0.45947       -0.47418
B          1.45624       -2.48064       -0.19508
B         -4.17870       -2.10327       -0.28024
B         -0.50236       -3.94260        1.02430
B          2.54737       -3.20746        0.80189
B          2.90802       -1.80761       -0.10261
B          4.42514       -1.11205        0.20043
B          0.59057        1.60786       -0.77697
B          2.09281        2.29852       -0.58319
B          3.49055        1.42810       -0.57599
B          4.83927        0.40569       -0.41462
B          4.84661        2.12746        0.15715
B          3.56558        3.02598       -0.10801
B          2.27231        3.94277        0.16433
B          0.75792        3.26095       -0.26519
B          0.94008        4.61097        0.53934
B         -2.03716        3.44045        0.42124
B         -0.53477        4.11535        0.47550
B         -2.23015        1.88407       -0.15566
B         -3.51647        2.80684        0.51962
B         -3.78957        1.27349       -0.19696
B         -0.76357        2.55264       -0.21651
B         -1.35064       -2.50530       -1.30395
B          3.33793       -0.28994       -0.83728
B         -0.90346        0.85521       -0.64422
B          4.05845       -2.56713        1.00893
B         -5.39080       -1.22679        0.22421
B         -5.17263        0.48803        0.28168
B         -4.94052        2.12002        0.77317
B         -6.24670        1.25795        1.14663
B         -6.44658       -0.22363        0.90303
B          1.87628        0.63553       -0.87397
B         -2.44760        0.29982       -0.70500
B          0.20092       -1.75515       -1.17752
B          5.38819       -1.89809        1.20266
B          5.84700       -0.42537        0.87276
B          5.81737        1.07584        0.68388
B         -1.32430       -2.28208        0.47695
