45
isomer_1647.log	Energy: -113628.3094135
B         -2.44079        1.73661        0.30022
B         -2.41907        3.34674       -0.16717
B         -1.05935        4.19468       -0.16739
B          0.35801        3.45431        0.55422
B         -1.11829        0.88850        1.03037
B          1.79708        0.85175        0.92664
B          1.75422        4.17063       -0.28257
B         -3.83176        0.88055       -0.07474
B          1.77301        2.55183        0.39317
B         -3.84276        2.54341       -0.33037
B          0.34430        4.77017       -0.37834
B          3.10012        3.28686       -0.30620
B          3.17044        1.71548        0.25125
B          4.49417        0.76438       -0.29148
B          0.28495       -1.71502        0.66832
B          1.69784       -2.52225        0.30540
B          3.13621       -1.73745        0.18734
B          4.61460       -0.90029        0.06957
B          4.45928       -2.54959       -0.51519
B          3.08278       -3.37112       -0.16410
B          1.68690       -4.18843       -0.27824
B          0.24504       -3.34090        0.21590
B          0.24972       -4.79473       -0.38982
B         -2.54092       -3.38498        0.04299
B         -1.16783       -4.22340       -0.09474
B         -2.52283       -1.72529        0.23359
B         -3.95030       -2.56961       -0.18729
B         -3.87645       -0.86942       -0.06035
B         -1.17294       -2.50330        0.63285
B         -1.10497        2.60122        0.63670
B          3.27263        0.00699        0.57418
B         -2.46587       -0.01124        0.42464
B          4.43963        2.42184       -0.73610
B         -5.21790        1.74922       -0.64688
B         -5.20864        0.03315       -0.44590
B         -5.29138       -1.70818       -0.56954
B         -6.46552       -0.73521       -1.03000
B         -6.44640        0.80942       -1.05658
B          1.71738       -0.82050        0.65773
B         -1.15648       -0.82350        1.08937
B          0.37517        1.85639        1.05632
B          5.57013        1.49358       -1.17815
B          5.75498       -0.06804       -1.08181
B          5.54037       -1.60750       -1.01937
B          0.38152        0.04223        1.20155
