45
isomer_1648.log	Energy: -112602.4994712
B         -2.54524        1.77940        0.43127
B         -2.51632        3.42124        0.06913
B         -1.09925        4.23665       -0.16286
B          0.34650        3.38067        0.38000
B         -1.09724        0.86644        0.72908
B          1.77751        0.85990        0.81833
B          1.74721        4.15657       -0.29847
B         -4.01435        0.92404        0.34634
B          1.71865        2.47109        0.27519
B         -3.93348        2.62006       -0.09184
B          0.33076        4.83902       -0.43240
B          3.16869        3.29235       -0.32036
B          3.17461        1.66462        0.22836
B          4.62497        0.83953       -0.27538
B          0.31207       -1.67919        0.85507
B          1.68690       -2.38425        0.22303
B          3.15328       -1.59607        0.19333
B          4.61438       -0.77938       -0.29277
B          4.43694       -2.33318       -0.55492
B          3.12616       -3.21142       -0.39023
B          1.69350       -4.05724       -0.38671
B          0.30296       -3.27784        0.30847
B          0.26826       -4.71807       -0.53507
B         -2.56011       -3.27428       -0.00280
B         -1.15379       -4.10299       -0.25245
B         -2.56760       -1.64037        0.39454
B         -3.96665       -2.45137       -0.14632
B         -4.02539       -0.76424        0.32820
B         -1.14311       -2.47571        0.55011
B         -1.10997        2.59251        0.60456
B          3.24741        0.12947        0.60864
B         -1.10783       -0.75303        0.71168
B          4.46790        2.40078       -0.50407
B         -5.26231        1.82947       -0.60616
B         -5.27041        0.19590       -0.38976
B         -5.28495       -1.63260       -0.64335
B         -6.44321       -0.66377       -1.23673
B         -6.43305        0.88884       -1.22005
B          1.76674       -0.78600        0.80065
B         -2.02081       -0.70289       -0.47624
B          0.33463        1.77066        0.89213
B          5.97210        1.68221       -0.72399
B          6.15604       -0.03148       -0.80715
B          5.94696       -1.75996       -0.83157
B         -0.82003       -1.76612        1.83353
