45
isomer_1649.log	Energy: -113434.6938461
B         -2.60440        1.63152        0.67798
B         -2.52040        3.23826        0.06070
B         -1.16811        4.11664       -0.04323
B          0.30723        3.37693        0.49222
B         -1.13118        0.83741        1.03655
B          1.56497        0.74810        0.09437
B          1.63774        4.14560       -0.34773
B         -4.02013        0.79915        0.41906
B          1.69827        2.50494        0.27286
B         -3.87964        2.36274       -0.14589
B          0.22441        4.72119       -0.36571
B          3.04772        3.30299       -0.37527
B          3.06966        1.69310       -0.06429
B          4.53930        0.82725       -0.01459
B          0.25611       -1.63939        0.63334
B          1.68740       -2.49255        0.51940
B          3.12194       -1.75305        0.40423
B          4.40474       -0.83120       -0.26155
B          4.42746       -2.52900       -0.45703
B          3.01161       -3.29814       -0.11570
B          1.62640       -4.18580       -0.11726
B          0.24400       -3.26535        0.20447
B          0.21154       -4.77098       -0.26927
B         -2.59276       -3.26431       -0.08352
B         -1.21247       -4.10295       -0.18006
B         -2.66740       -1.58330        0.35921
B         -3.99269       -2.41955       -0.25705
B         -4.09948       -0.87565        0.40692
B         -1.27317       -2.45551        0.33185
B         -1.21288        2.55628        0.68158
B          3.13140        0.00976        0.47070
B         -1.21037       -0.69679        0.59725
B          4.42089        2.47154       -0.71164
B         -5.15397        1.65673       -0.67676
B         -5.31207        0.00410       -0.33876
B         -5.28581       -1.67263       -0.69524
B         -6.39069       -0.71939       -1.29799
B         -6.30492        0.76791       -1.33088
B          1.69371       -0.75538        1.08430
B          0.32742        0.07776        1.58148
B          0.35317        1.73344        0.93608
B          5.51341        1.48549       -1.07596
B          5.74416       -0.07320       -0.98035
B          5.59097       -1.64107       -0.90435
B          0.17692       -0.04365       -0.15442
