45
isomer_0165.log	Energy: -111457.3327826
B         -2.68827       -1.62414       -0.40209
B         -2.69786       -3.32762        0.00642
B         -1.20599       -4.16332        0.23698
B          0.26772       -3.34140       -0.34099
B         -1.14521       -0.82016       -0.71849
B          1.76675       -0.83436       -0.82584
B          1.65069       -4.13024        0.34458
B         -4.08146       -0.70259       -0.33543
B          1.66348       -2.45189       -0.25740
B         -4.08371       -2.41327        0.14373
B          0.22146       -4.76706        0.49633
B          3.08434       -3.29632        0.34955
B          3.13841       -1.67513       -0.22042
B          4.60490       -0.87193        0.27353
B          0.38570        1.83245       -0.89231
B          1.78777        2.46743       -0.27193
B          3.22076        1.62325       -0.23057
B          4.64140        0.76051        0.26657
B          4.52690        2.32688        0.51442
B          3.24329        3.24715        0.33081
B          1.84615        4.14703        0.31786
B          0.43008        3.41614       -0.36613
B          0.44641        4.85379        0.45537
B         -2.42981        3.49586       -0.05489
B         -0.99482        4.29787        0.18285
B         -2.50787        1.85054       -0.42977
B         -3.86667        2.70151        0.10691
B         -4.00899        1.01346       -0.34644
B         -1.03497        2.67460       -0.59579
B         -1.15240       -2.53950       -0.57408
B          3.26216       -0.12623       -0.62248
B         -1.06307        1.00714       -0.74341
B          4.41565       -2.43400        0.52850
B         -5.35790       -1.53701        0.63955
B         -5.28712        0.09806        0.39018
B         -5.21318        1.92795        0.61164
B         -6.40208        1.01402        1.22133
B         -6.47010       -0.52813        1.23673
B          1.80988        0.84845       -0.83019
B         -1.87901       -2.44260       -0.40719
B          0.29002       -1.74655       -0.87961
B          5.91245       -1.73159        0.73466
B          6.13999       -0.03617        0.79104
B          5.99043        1.67731        0.79288
B         -1.17629        0.25981       -0.62692
