45
isomer_1650.log	Energy: -112221.3410505
B          2.59872       -1.63987        0.38655
B          2.59413       -3.27597       -0.00171
B          1.18907       -4.11023       -0.23965
B         -0.26730       -3.28634        0.32408
B          1.13790       -0.75514        0.70619
B         -1.73607       -0.79618        0.80991
B         -1.65899       -4.07372       -0.35972
B          4.05351       -0.75978        0.30799
B         -1.65434       -2.39736        0.24072
B          3.99744       -2.44968       -0.15691
B         -0.23254       -4.73111       -0.51166
B         -3.09419       -3.23220       -0.36065
B         -3.12322       -1.61373        0.21412
B         -4.58921       -0.80411       -0.26907
B         -0.31121        1.76520        0.88002
B         -1.70043        2.45808        0.26624
B         -3.15418        1.64703        0.23125
B         -4.60458        0.81484       -0.26057
B         -4.45336        2.37527       -0.49867
B         -3.15593        3.27170       -0.32648
B         -1.73696        4.14026       -0.31656
B         -0.33051        3.37230        0.35907
B         -0.32327        4.82617       -0.46144
B          2.53057        3.41968        0.03347
B          1.10990        4.22957       -0.19584
B          2.56625        1.77997        0.40452
B          3.94930        2.62185       -0.13026
B          4.03748        0.92854        0.31686
B          1.12943        2.58974        0.58059
B          1.17755       -2.47857        0.55396
B         -3.21853       -0.08620        0.61931
B          1.12253        0.86436        0.71470
B         -4.40842       -2.35879       -0.52354
B          5.31075       -1.62975       -0.66512
B          5.29389        0.00009       -0.42262
B          5.27789        1.83239       -0.64694
B          6.44833        0.89187       -1.26155
B          6.46307       -0.66077       -1.26971
B         -1.75170        0.84975        0.81856
B          1.96889       -0.64679        1.60949
B         -0.27846       -1.68472        0.86189
B         -5.92504       -1.66105       -0.72439
B         -6.13677        0.05057       -0.77915
B         -5.95546        1.78236       -0.77691
B         -0.15593       -1.37953       -0.08033
