45
isomer_1653.log	Energy: -113367.3024083
B          2.50937        1.73101       -0.61183
B          2.46352        3.42101       -0.04179
B          1.09706        4.15727        0.11963
B         -0.34199        3.44671       -0.49800
B          1.06789        1.02679       -1.10074
B         -1.74293        0.91136       -1.04019
B         -1.70249        4.11804        0.32281
B          3.90429        1.05321       -0.27185
B         -1.76668        2.53578       -0.47997
B          3.76282        2.64005        0.11666
B         -0.30392        4.72097        0.44859
B         -3.08128        3.28453        0.28314
B         -3.16734        1.75274       -0.27173
B         -4.40610        0.78247        0.33817
B         -0.25462       -1.41769       -1.05042
B         -1.61373       -2.37757       -0.67937
B         -3.07192       -1.68042       -0.37307
B         -4.51555       -0.84386        0.04538
B         -4.13933       -2.37271        0.77385
B         -2.72761       -3.09706        0.36535
B         -1.29751       -3.85006        0.31189
B         -0.09949       -3.19591       -0.94531
B         -0.05153       -4.69458        0.10301
B          2.24620       -3.00946        0.28353
B          1.33214       -4.17960       -0.29268
B          2.48772       -1.50062       -0.66163
B          3.61052       -2.15310        0.48747
B          3.75433       -0.61480       -0.06588
B          1.36074       -2.51154       -1.28575
B          1.13042        2.63768       -0.81601
B         -3.23380        0.06016       -0.63878
B          1.15905       -0.56025       -0.99018
B         -4.44187        2.46216        0.67802
B          5.13012        1.82519        0.63433
B          5.18243        0.16902        0.28106
B          4.93319       -1.41209        0.92785
B          5.98963       -0.47885        1.57111
B          6.14000        0.98098        1.38500
B         -1.72921       -0.69825       -0.98331
B          0.38524       -3.17956        0.80147
B         -0.36771        1.83795       -1.15325
B         -5.55370        1.53777        1.16417
B         -5.64387       -0.01897        1.23108
B         -5.26271       -1.50418        1.31606
B          0.87021       -1.74171        0.26211
