45
isomer_1654.log	Energy: -113395.3597209
B          2.66020       -1.59400        0.61835
B          2.60493       -3.20647        0.04780
B          1.28046       -4.08912       -0.11196
B         -0.20428       -3.35595        0.41206
B          1.15049       -0.80619        1.04095
B         -1.67250       -0.82121        0.66844
B         -1.52126       -4.14134       -0.37070
B          4.05642       -0.75318        0.38474
B         -1.65352       -2.54438        0.38340
B          3.97813       -2.32824       -0.13304
B         -0.09911       -4.72651       -0.40880
B         -2.94154       -3.30561       -0.37755
B         -3.09735       -1.78300        0.16542
B         -4.50929       -0.87865       -0.17205
B         -0.29555        1.71572        0.93664
B         -1.75166        2.50705        0.58760
B         -3.16392        1.71861        0.33840
B         -4.51699        0.77482       -0.13647
B         -4.43087        2.44319       -0.59915
B         -3.05199        3.24092       -0.19497
B         -1.68867        4.12883       -0.19568
B         -0.31116        3.32589        0.42029
B         -0.29215        4.72244       -0.35985
B          2.48766        3.27659       -0.12129
B          1.11896        4.10309       -0.20540
B          2.59236        1.64141        0.37602
B          3.87560        2.43227       -0.37502
B          4.02886        0.90795        0.30881
B          1.20034        2.50028        0.46631
B          1.28970       -2.51675        0.66889
B         -3.24672       -0.04815        0.58175
B          1.13258        0.74820        0.71870
B         -4.32177       -2.49838       -0.80132
B          5.23822       -1.60290       -0.67328
B          5.29361        0.07400       -0.41038
B          5.18766        1.72829       -0.81434
B          6.34091        0.80513       -1.39159
B          6.34889       -0.68353       -1.34794
B         -1.69011        0.77799        0.93296
B         -0.28940       -0.02024        1.73189
B         -0.26520       -1.75793        0.98131
B         -5.42199       -1.57562       -1.27553
B         -5.66531       -0.02354       -1.19144
B         -5.52262        1.52790       -1.11250
B         -0.24104       -0.03969        0.00951
