45
isomer_1655.log	Energy: -113421.4734113
B         -2.47649       -1.47408       -0.23393
B         -2.73600       -3.57135       -0.16548
B         -1.22173       -4.00619        0.20351
B          0.30434       -3.28894       -0.43724
B         -0.99281       -0.64687       -0.82017
B          1.76164       -0.76393       -0.85861
B          1.65233       -4.09163        0.20725
B         -3.93692       -0.69883       -0.38395
B          1.75631       -2.45786       -0.49824
B         -3.81392       -2.44915        0.27586
B          0.24592       -4.60694        0.44641
B          3.09061       -3.27055        0.12939
B          3.21392       -1.72915       -0.36804
B          4.63894       -0.85153        0.00227
B          0.44927        1.75275       -0.91720
B          1.84889        2.49632       -0.36174
B          3.28223        1.70284       -0.26011
B          4.68781        0.79208        0.01949
B          4.58163        2.39703        0.63593
B          3.20251        3.22080        0.33503
B          1.82987        4.07973        0.43405
B          0.45035        3.40802       -0.35474
B          0.43525        4.68451        0.59769
B         -2.41122        3.44104       -0.00309
B         -0.98030        4.16805        0.25006
B         -2.49389        1.88208       -0.51902
B         -3.85903        2.65552        0.13047
B         -3.92658        1.02122       -0.41154
B         -1.04844        2.65182       -0.56309
B         -1.09210       -2.34955       -0.37255
B          3.30645        0.01625       -0.62641
B         -1.02346        0.94756       -0.88469
B          4.48637       -2.49829        0.47553
B         -5.13610       -1.52493        0.58690
B         -5.18685        0.14150        0.25601
B         -5.16246        1.88515        0.53505
B         -6.25988        0.94278        1.13873
B         -6.26626       -0.57890        1.16381
B          1.79212        0.84759       -0.83309
B         -2.12727       -2.57612        0.90468
B          0.37958       -1.59285       -0.92177
B          5.66120       -1.62919        0.92641
B          5.87692       -0.08321        0.95975
B          5.70929        1.46078        1.03267
B         -2.49204        0.14463       -0.85227
