45
isomer_1657.log	Energy: -113498.2263159
B          2.20927        1.99618       -0.46005
B          1.88532        3.55946        0.23482
B          0.43875        4.18298        0.28862
B         -0.89397        3.31058       -0.45819
B          0.95220        1.12033       -1.05968
B         -1.94376        0.63619       -0.98225
B         -2.36537        3.84857        0.22950
B          3.61362        1.27778       -0.15721
B         -2.17189        2.25909       -0.55783
B          3.31039        2.79236        0.47665
B         -1.07349        4.58495        0.49613
B         -3.63372        2.82237        0.13522
B         -3.50354        1.28298       -0.39240
B         -4.71513        0.14900        0.04017
B         -0.14962       -1.76339       -1.34934
B         -1.30044       -2.61083       -0.46239
B         -2.75624       -1.98606       -0.10827
B         -4.36931       -1.47586       -0.01234
B         -3.82845       -2.93313        0.82522
B         -2.33525       -3.46184        0.51710
B         -0.74359       -3.76652        0.74215
B          0.36523       -2.97306       -0.29315
B          0.73788       -3.74137        1.03573
B          3.00363       -2.90920       -0.83920
B          1.97235       -2.99702        0.39453
B          3.09958       -1.37878       -1.58400
B          4.36765       -2.07862       -0.62244
B          3.97968       -0.33971       -0.60759
B          1.55652       -1.77758       -0.98915
B          0.69960        2.73442       -0.56223
B         -3.26311       -0.43118       -0.70098
B          2.25550        0.01267       -0.85961
B         -4.83198        1.82466        0.53558
B          4.48720        1.97970        1.20297
B          4.89584        0.42656        0.60347
B          4.74843       -1.36058        0.72953
B          5.33175       -0.48342        1.89347
B          5.32141        1.00008        2.05125
B         -1.48623       -0.92628       -0.93240
B          2.91234       -1.49167        0.31927
B         -0.65770        1.64047       -1.00900
B         -5.78674        0.74136        1.07198
B         -5.65650       -0.77446        1.13842
B         -5.08478       -2.21475        1.24103
B          0.40669       -0.30739       -1.20309
