45
isomer_1658.log	Energy: -113675.8840796
B         -2.50735       -1.76018       -0.48696
B         -2.42596       -3.33625        0.03857
B         -1.04522       -4.15755        0.12263
B          0.35317       -3.38404       -0.51310
B         -1.12864       -0.84864       -1.04038
B          1.78904       -0.83006       -0.91501
B          1.75075       -4.14380        0.24567
B         -3.95551       -0.91227       -0.21545
B          1.80384       -2.53245       -0.49006
B         -3.80831       -2.53866        0.29268
B          0.34455       -4.74575        0.35186
B          3.09415       -3.27911        0.26581
B          3.17430       -1.67918       -0.26087
B          4.53136       -0.79526        0.24025
B          0.31155        1.83055       -1.08597
B          1.72209        2.55179       -0.42795
B          3.12795        1.73520       -0.21996
B          4.54702        0.89638        0.14278
B          4.32435        2.50098        0.77067
B          3.00650        3.34251        0.27904
B          1.63927        4.17057        0.25807
B          0.26697        3.40372       -0.54010
B          0.21643        4.74802        0.35259
B         -2.51619        3.30341        0.03645
B         -1.15994        4.14886        0.10816
B         -2.56429        1.72958       -0.53105
B         -3.87120        2.48380        0.27538
B         -3.98471        0.84390       -0.22489
B         -1.18745        2.57710       -0.78872
B         -1.11740       -2.59016       -0.76389
B          3.29328        0.01685       -0.60918
B         -1.17072        0.85097       -1.06765
B          4.40900       -2.44316        0.74835
B         -5.05970       -1.74108        0.86457
B         -5.19513       -0.04672        0.52298
B         -5.10556        1.64955        0.84470
B         -6.10591        0.70386        1.60477
B         -6.08436       -0.81683        1.61237
B          1.71646        0.84381       -0.78385
B         -2.60967       -0.01690       -0.74626
B          0.34296        0.00300       -1.09209
B          5.47599       -1.51720        1.29985
B          5.62053        0.03498        1.30404
B          5.37073        1.57045        1.33851
B          0.37100       -1.82458       -1.11734
