45
isomer_0166.log	Energy: -113675.8856453
B          2.56224       -1.73155        0.53040
B          2.51173       -3.30441       -0.03671
B          1.15439       -4.14917       -0.10974
B         -0.27026       -3.40249        0.53785
B          2.60923        0.01543        0.74528
B         -1.71861       -0.84330        0.79125
B         -1.64403       -4.16943       -0.25797
B          3.98317       -0.84656        0.22432
B         -1.72603       -2.55098        0.43240
B          3.86823       -2.48628       -0.27587
B         -0.22225       -4.74810       -0.35331
B         -3.00998       -3.33939       -0.27815
B         -3.12993       -1.73236        0.22257
B         -4.54631       -0.89227       -0.14757
B         -0.36784        1.82560        1.11643
B         -1.80023        2.53301        0.48748
B         -3.17233        1.68142        0.25937
B         -4.53201        0.79954       -0.23665
B         -4.40468        2.44539       -0.75063
B         -3.08976        3.28150       -0.26683
B         -1.74573        4.14504       -0.24624
B         -0.34934        3.38558        0.51595
B         -0.33914        4.74644       -0.35123
B          2.42907        3.33432       -0.03953
B          1.04956        4.15752       -0.12194
B          2.51027        1.75948        0.48968
B          3.81079        2.53617       -0.29252
B          3.95614        0.90898        0.21482
B          1.12075        2.58980        0.76600
B          1.18471       -2.57795        0.79009
B         -3.29348       -0.01521        0.60882
B          1.13078        0.84903        1.04434
B         -4.32758       -2.49852       -0.77039
B          5.10300       -1.65362       -0.84632
B          5.19466        0.04253       -0.52406
B          5.06061        1.73699       -0.86545
B          6.08318        0.81174       -1.61449
B          6.10285       -0.70901       -1.60750
B         -1.78462        0.83058        0.90926
B         -0.34268       -0.00268        1.09638
B         -0.31375       -1.83099        1.08851
B         -5.37453       -1.56876       -1.33864
B         -5.61923       -0.03206       -1.30570
B         -5.47061        1.51971       -1.30339
B          1.16958       -0.85069        1.06964
