45
isomer_1660.log	Energy: -113336.0569354
B         -2.66946       -1.78352       -0.31329
B         -3.55064       -3.19750       -0.77812
B         -1.03653       -4.34626        0.31498
B          0.23503       -3.32384       -0.05289
B         -1.45069       -0.75385       -0.40026
B          1.66073       -0.81303       -0.42240
B          1.78962       -4.18465        0.42002
B         -3.79792       -0.60593        0.01855
B          1.72132       -2.51784       -0.11394
B         -4.37546       -1.98920       -0.65457
B          0.39230       -4.82081        0.56136
B          3.12987       -3.34734        0.29634
B          3.17995       -1.74720       -0.16773
B          4.60496       -0.92104       -0.22764
B          0.34048        1.77498       -0.88159
B          1.83456        2.52147       -0.45230
B          3.20665        1.66584       -0.34719
B          4.63146        0.77032       -0.08424
B          4.62409        2.46105        0.31359
B          3.22242        3.26399        0.06071
B          1.87058        4.19668        0.06822
B          0.40262        3.37805       -0.42235
B          0.49704        4.85525        0.23866
B         -2.33876        3.52840        0.17629
B         -0.96769        4.31970        0.16255
B         -2.31383        1.76072        0.19846
B         -3.65389        2.72288        0.50859
B         -3.79573        1.05443        0.30284
B         -1.10545        2.66289       -0.51067
B         -1.18837       -2.47647       -0.31193
B          3.22129       -0.03432       -0.64272
B         -1.09338        0.88750       -0.14869
B          4.54681       -2.49396        0.53529
B         -5.56305       -1.18996        0.02414
B         -5.12043        0.26242        0.70342
B         -5.13578        1.98548        0.70422
B         -6.46729        1.22826        0.60652
B         -6.68362       -0.20294        0.32475
B          1.75587        0.80190       -0.87260
B         -2.37246       -3.65822        0.02167
B          0.24417       -1.71015       -0.43920
B          5.63029       -1.50994        0.85723
B          5.94096       -0.00241        0.70342
B          5.80910        1.54533        0.62987
B          0.18823       -0.01717       -0.50740
