45
isomer_1661.log	Energy: -112462.7416077
B         -2.61476        1.73024        0.38512
B         -2.60039        3.37463        0.03388
B         -1.19055        4.20444       -0.19095
B          0.26231        3.35809        0.34802
B         -1.15885        0.82855        0.67867
B          1.71573        0.84761        0.77144
B          1.65669        4.15120       -0.32356
B         -4.07592        0.86211        0.29271
B          1.64282        2.46177        0.23890
B         -4.01000        2.56166       -0.13414
B          0.23424        4.82159       -0.45473
B          3.08601        3.30013       -0.34941
B          3.10613        1.66892        0.18854
B          4.56454        0.86044       -0.31885
B          0.27346       -1.70491        0.78957
B          1.65541       -2.39321        0.15457
B          3.11458       -1.59152        0.13191
B          4.56874       -0.75835       -0.34696
B          4.40579       -2.31193       -0.61961
B          3.10287       -3.20315       -0.46236
B          1.67798       -4.06199       -0.46621
B          0.27957       -3.29992        0.23239
B          0.25901       -4.73478       -0.62070
B         -2.58304       -3.32038       -0.08240
B         -1.16893       -4.13457       -0.33579
B         -2.60590       -1.68927        0.32573
B         -3.99685       -2.50938       -0.22222
B         -4.07154       -0.82604        0.26339
B         -1.17403       -2.51261        0.47754
B         -1.18717        2.55522        0.56556
B          3.19247        0.13201        0.55874
B         -1.15465       -0.79079        0.65055
B          4.39352        2.42168       -0.53740
B         -5.33096        1.76242       -0.65532
B         -5.32442        0.12745       -0.44975
B         -5.32198       -1.69938       -0.71545
B         -6.48832       -0.73723       -1.30384
B         -6.49235        0.81525       -1.27688
B          1.71999       -0.79816        0.74285
B         -0.37557       -1.96483        2.55897
B          0.26452        1.74468        0.84948
B          5.90447        1.71831       -0.76020
B          6.10412        0.00696       -0.85447
B          5.91084       -1.72316       -0.89059
B         -0.16964        0.45019        1.13327
