45
isomer_1662.log	Energy: -112475.7903828
B          2.55997        1.80317       -0.44372
B          2.44751        3.44395       -0.05636
B          1.00553        4.21425        0.14878
B         -0.39817        3.40185       -0.40268
B          1.19934        0.85470       -0.77236
B         -1.79423        0.93098       -0.84953
B         -1.80623        4.14471        0.27343
B          4.03285        1.03100       -0.33134
B         -1.77225        2.50419       -0.30135
B          3.83861        2.68322        0.10993
B         -0.40888        4.77088        0.40237
B         -3.20957        3.28256        0.31323
B         -3.21422        1.66462       -0.23537
B         -4.65031        0.79839        0.27628
B         -0.08866       -1.66254       -0.91461
B         -1.57356       -2.50425       -0.17810
B         -3.11163       -1.65683       -0.15686
B         -4.56553       -0.82986        0.31147
B         -4.36978       -2.42766        0.62391
B         -2.94565       -3.30824        0.43141
B         -1.47233       -4.14379        0.44022
B         -0.06334       -3.37517       -0.30192
B          0.06023       -4.72011        0.53950
B          2.93678       -3.22932        0.04829
B          1.53172       -4.14898        0.29504
B          2.84562       -1.54873       -0.39285
B          4.20098       -2.29443        0.16893
B          4.15531       -0.65352       -0.29740
B          1.49592       -2.49505       -0.53710
B          1.12959        2.60239       -0.62098
B         -3.26249        0.11452       -0.61954
B          1.34684       -0.69162       -0.76779
B         -4.54884        2.40366        0.52941
B          5.16751        1.98577        0.64037
B          5.27763        0.34988        0.42753
B          5.40348       -1.38192        0.68430
B          6.41451       -0.38776        1.28503
B          6.34694        1.12995        1.27954
B         -1.76315       -0.68652       -0.93193
B          0.94311       -2.56758       -1.48877
B         -0.34413        1.79251       -0.93633
B         -5.92958        1.53244        0.73995
B         -6.02889       -0.07706        0.82105
B         -5.76632       -1.71849        0.84951
B         -1.25222       -0.93016       -0.10262
