45
isomer_1664.log	Energy: -112454.5545782
B         -2.55237        1.79900        0.41447
B         -2.51609        3.44184        0.05760
B         -1.09514        4.25308       -0.16511
B          0.34507        3.39044        0.38194
B         -1.10894        0.88013        0.71630
B          1.76531        0.86340        0.81918
B          1.75164        4.16362       -0.28743
B         -4.02398        0.94897        0.31988
B          1.71457        2.47647        0.28081
B         -3.93521        2.64606       -0.11261
B          0.33820        4.85135       -0.42596
B          3.17024        3.29458       -0.30527
B          3.16796        1.66514        0.23838
B          4.61786        0.83662       -0.26104
B          0.29101       -1.67072        0.84103
B          1.66640       -2.37855        0.21332
B          3.13561       -1.59533        0.19306
B          4.60180       -0.78218       -0.28354
B          4.42028       -2.33453       -0.55138
B          3.10572       -3.20876       -0.39567
B          1.67016       -4.04965       -0.40160
B          0.27901       -3.26762        0.28940
B          0.24339       -4.70510       -0.55880
B         -2.58251       -3.25323       -0.03546
B         -1.17788       -4.08600       -0.28102
B         -2.58629       -1.62054        0.36694
B         -3.98552       -2.42503       -0.18309
B         -4.04073       -0.73919        0.29642
B         -1.16543       -2.46127        0.52667
B         -1.11515        2.60661        0.59711
B          3.23367        0.12856        0.61420
B         -1.12501       -0.73923        0.69379
B          4.46724        2.39911       -0.48559
B         -5.26428        1.86165       -0.63570
B         -5.27902        0.22746       -0.42445
B         -5.29862       -1.60018       -0.68382
B         -6.45071       -0.62552       -1.27966
B         -6.43530        0.92697       -1.25808
B          1.74898       -0.78239        0.79631
B         -1.50858       -1.85824        2.20788
B          0.32523        1.77890        0.88898
B          5.97000        1.67605       -0.70060
B          6.14844       -0.03800       -0.78824
B          5.93355       -1.76567       -0.81906
B         -0.86458       -1.12905       -0.43047
