45
isomer_1669.log	Energy: -113675.8329194
B          2.52712        1.75187       -0.50185
B          2.45400        3.32226        0.04154
B          1.08036        4.15388        0.12322
B         -0.32389        3.39064       -0.51982
B          1.14414        0.84872       -1.05936
B         -1.76053        0.83428       -0.87628
B         -1.71355        4.15008        0.25586
B          3.96468        0.88833       -0.21728
B         -1.77883        2.53881       -0.47284
B          3.82996        2.52043        0.28659
B         -0.30338        4.74586        0.35780
B         -3.06407        3.29612        0.27351
B         -3.15964        1.69588       -0.24868
B         -4.53906        0.82900        0.20615
B         -0.32867       -1.83229       -1.09939
B         -1.75040       -2.54503       -0.45315
B         -3.14370       -1.71511       -0.23613
B         -4.54434       -0.86368        0.17326
B         -4.35377       -2.48001        0.76483
B         -3.03400       -3.31772        0.27604
B         -1.67505       -4.15946        0.25886
B         -0.29401       -3.39780       -0.52828
B         -0.25929       -4.74700        0.35863
B          2.48492       -3.31079        0.04233
B          1.11985       -4.15080        0.11962
B          2.54622       -1.74107       -0.51478
B          3.85188       -2.50159        0.28177
B          3.97501       -0.86511       -0.22057
B          1.16471       -2.58171       -0.78304
B          1.14015        2.58601       -0.77481
B         -3.29487       -0.00554       -0.60793
B          1.15785       -0.84858       -1.06582
B         -4.38320        2.46034        0.75843
B          5.07639        1.71156        0.85777
B          5.19643        0.01625        0.52290
B          5.09266       -1.67993        0.85103
B          6.09854       -0.74132        1.60850
B          6.09099        0.78052        1.61105
B         -1.73539       -0.83937       -0.83449
B          2.60894        0.00532       -0.74350
B         -0.35007        1.82968       -1.10929
B         -5.44409        1.53585        1.31508
B         -5.62034       -0.01230        1.30408
B         -5.40813       -1.55476        1.32782
B         -0.34253       -0.00074       -1.10941
