45
isomer_1671.log	Energy: -111110.7964483
B         -2.60162        1.70887        0.38651
B         -2.58983        3.34509       -0.00111
B         -1.18129        4.17197       -0.24412
B          0.27285        3.34012        0.31368
B         -1.14431        0.81626        0.70017
B          1.73022        0.84200        0.79285
B          1.66605        4.12038       -0.37516
B         -4.06136        0.83655        0.31319
B          1.65481        2.44382        0.22463
B         -3.99810        2.52632       -0.15124
B          0.24255        4.78541       -0.52134
B          3.09675        3.27126       -0.38194
B          3.11939        1.65241        0.19206
B          4.57919        0.83522       -0.29709
B          0.29206       -1.71181        0.86742
B          1.67521       -2.41180        0.24802
B          3.13309       -1.60847        0.20777
B          4.58599       -0.78379       -0.28929
B          4.42558       -2.34329       -0.52743
B          3.12407       -3.23290       -0.35061
B          1.70056       -4.09391       -0.33559
B          0.30082       -3.31878        0.34575
B          0.28269       -4.77224       -0.47531
B         -2.56171       -3.35082        0.03114
B         -1.14625       -4.16815       -0.20395
B         -2.58725       -1.71111        0.40298
B         -3.97680       -2.54540       -0.12681
B         -4.05427       -0.85183        0.32132
B         -1.15409       -2.52857        0.57320
B         -1.17538        2.53994        0.54878
B          3.20815        0.12423        0.59627
B         -1.13750       -0.80330        0.70797
B          4.40569        2.39095       -0.55024
B         -5.31769        1.71359       -0.65473
B         -5.30856        0.08359       -0.41295
B         -5.30315       -1.74868       -0.63806
B         -6.47094       -0.80169       -1.24779
B         -6.47746        0.75100       -1.25527
B          1.73714       -0.80400        0.80078
B         -0.62058       -1.49367        0.51567
B          0.27756        1.73824        0.85080
B          5.91780        1.68525       -0.75719
B          6.12022       -0.02745       -0.81346
B          5.92973       -1.75825       -0.81122
B         -0.61003        1.14743        1.48094
