45
isomer_1672.log	Energy: -112278.5408548
B          2.57997        1.83633       -0.44527
B          2.54210        3.47609       -0.07418
B          1.12392        4.28209        0.15966
B         -0.31535        3.42886       -0.38551
B          1.14065        0.92173       -0.74901
B         -1.73971        0.90599       -0.83507
B         -1.71578        4.19514        0.29606
B          4.04792        0.99160       -0.36176
B         -1.68586        2.51615       -0.28463
B          3.95377        2.68087        0.08306
B         -0.30297        4.87350        0.43053
B         -3.13346        3.32850        0.31606
B         -3.13698        1.70530       -0.23875
B         -4.58496        0.87122        0.26192
B         -0.26428       -1.63569       -0.89636
B         -1.64093       -2.35020       -0.25148
B         -3.10558       -1.56341       -0.21726
B         -4.56522       -0.74773        0.27148
B         -4.38742       -2.30700        0.53188
B         -3.06599       -3.18419        0.36038
B         -1.63338       -4.03287        0.35391
B         -0.25637       -3.24712       -0.34492
B         -0.21108       -4.69187        0.50659
B          2.64484       -3.22479       -0.02666
B          1.22912       -4.09373        0.24117
B          2.63178       -1.57004       -0.42485
B          4.02630       -2.37650        0.12164
B          4.07246       -0.69219       -0.34988
B          1.21270       -2.41216       -0.59026
B          1.14600        2.64445       -0.61445
B         -3.20578        0.16769       -0.62554
B          1.16863       -0.68501       -0.73865
B         -4.43779        2.43761        0.50049
B          5.28171        1.90114        0.59697
B          5.30192        0.26731        0.37530
B          5.32885       -1.55048        0.62466
B          6.46795       -0.58017        1.22441
B          6.45346        0.96739        1.21160
B         -1.72495       -0.73896       -0.82436
B          1.19268       -3.47519       -0.57356
B         -0.29699        1.82053       -0.90630
B         -5.92371        1.69845        0.71395
B         -6.09686       -0.00292        0.78801
B         -5.88259       -1.71689        0.80510
B         -0.23277       -1.03881       -0.01610
