45
isomer_1674.log	Energy: -112605.1480901
B          2.62898       -1.66264        0.39560
B          2.60328       -3.29611        0.00738
B          1.20311       -4.12891       -0.23033
B         -0.24579       -3.30905        0.32969
B          1.17846       -0.77028        0.70685
B         -1.70949       -0.79977        0.82257
B         -1.63643       -4.08354       -0.35885
B          4.06672       -0.78768        0.31916
B         -1.63743       -2.41290        0.24410
B          4.00843       -2.46395       -0.14553
B         -0.21766       -4.73136       -0.50282
B         -3.06543       -3.23752       -0.36271
B         -3.09542       -1.62040        0.21221
B         -4.55399       -0.79597       -0.27179
B         -0.26637        1.75194        0.89039
B         -1.65511        2.45172        0.27166
B         -3.10960        1.64948        0.23087
B         -4.56039        0.82414       -0.26311
B         -4.41008        2.38806       -0.50853
B         -3.09208        3.26831       -0.32555
B         -1.67037        4.12610       -0.31263
B         -0.27709        3.35685        0.36493
B         -0.25990        4.78949       -0.45188
B          2.57130        3.38918        0.03898
B          1.16563        4.19734       -0.18727
B          2.60358        1.74692        0.41564
B          3.97683        2.57638       -0.12085
B          4.05623        0.90190        0.32724
B          1.17893        2.56583        0.58897
B          1.20536       -2.51119        0.56012
B         -3.18687       -0.08063        0.61895
B          1.16438        0.85207        0.72914
B         -4.39293       -2.36216       -0.53655
B          5.31299       -1.65595       -0.65132
B          5.29982       -0.02419       -0.40964
B          5.28818        1.78705       -0.63295
B          6.44048        0.84950       -1.24295
B          6.46055       -0.68740       -1.25505
B         -1.71452        0.84544        0.82529
B          1.16321       -0.74913        1.68011
B         -0.24955       -1.70148        0.87755
B         -5.86916       -1.62387       -0.73512
B         -6.06436        0.06734       -0.78377
B         -5.88049        1.75805       -0.77902
B         -0.75592       -0.64703       -0.38918
