45
isomer_1675.log	Energy: -111316.0666580
B          2.62187       -1.64774        0.39827
B          2.61977       -3.28312        0.00693
B          1.21637       -4.11617       -0.24466
B         -0.24438       -3.29254        0.30804
B          1.15881       -0.76282        0.70695
B         -1.71597       -0.80249        0.78582
B         -1.63053       -4.07789       -0.38920
B          4.07775       -0.76830        0.33388
B         -1.63018       -2.40266        0.21438
B          4.02480       -2.45730       -0.13462
B         -0.20317       -4.73578       -0.53006
B         -3.06522       -3.23560       -0.40093
B         -3.09836       -1.61818        0.17657
B         -4.55970       -0.80687       -0.31773
B         -0.29042        1.75798        0.87297
B         -1.67393        2.45275        0.24853
B         -3.12775        1.64255        0.19951
B         -4.57429        0.81207       -0.30634
B         -4.42021        2.37285       -0.54022
B         -3.12384        3.26826       -0.35519
B         -1.70455        4.13603       -0.33143
B         -0.30438        3.36606        0.35486
B         -0.28930        4.82145       -0.46285
B          2.55942        3.41249        0.05402
B          1.14121        4.22358       -0.18601
B          2.59104        1.77208        0.42232
B          3.97909        2.61420       -0.09896
B          4.06253        0.92000        0.34576
B          1.15319        2.58229        0.58750
B          1.19887       -2.48598        0.55186
B         -3.19636       -0.09136        0.58377
B          1.14422        0.85667        0.71834
B         -4.37755       -2.36118       -0.57352
B          5.34287       -1.63714       -0.62998
B          5.32478       -0.00775       -0.38459
B          5.31167        1.82497       -0.60563
B          6.48688        0.88496       -1.21189
B          6.50087       -0.66766       -1.22280
B         -1.73080        0.84342        0.79739
B          1.48866       -1.06925        0.18954
B         -0.25933       -1.69192        0.84871
B         -5.89201       -1.66224       -0.78613
B         -6.10236        0.04959       -0.83953
B         -5.92017        1.78127       -0.83251
B         -0.86990       -0.71360        1.67884
