45
isomer_1679.log	Energy: -112608.8828922
B         -2.58090        1.71969        0.39100
B         -2.55961        3.35999        0.02144
B         -1.14608        4.18271       -0.20627
B          0.30158        3.33782        0.34876
B         -1.12926        0.81670        0.70125
B          1.74491        0.82761        0.80686
B          1.70154        4.11889       -0.32532
B         -4.04443        0.85525        0.30168
B          1.67965        2.43592        0.25595
B         -3.97107        2.54969       -0.14387
B          0.28187        4.79230       -0.47046
B          3.12819        3.26302       -0.33514
B          3.14059        1.63789        0.22113
B          4.59864        0.81911       -0.27054
B          0.29430       -1.71992        0.84703
B          1.67686       -2.41971        0.22607
B          3.13871       -1.62299        0.20106
B          4.59771       -0.79990       -0.28050
B          4.43095       -2.35591       -0.53647
B          3.12445       -3.24114       -0.37517
B          1.69681       -4.09542       -0.37587
B          0.29775       -3.32109        0.30778
B          0.27637       -4.76536       -0.52928
B         -2.56347       -3.33593       -0.01977
B         -1.15088       -4.15742       -0.25759
B         -2.58287       -1.70029        0.36996
B         -3.97399       -2.52204       -0.17508
B         -4.04541       -0.83313        0.29129
B         -1.15439       -2.52644        0.53749
B         -1.15147        2.54207        0.56868
B          3.22027        0.10496        0.60891
B         -1.13020       -0.80286        0.69129
B          4.43367        2.37834       -0.50734
B         -5.29226        1.74888       -0.66207
B         -5.29195        0.11630       -0.43817
B         -5.29425       -1.71339       -0.68337
B         -6.45480       -0.75418       -1.28780
B         -6.45390        0.79851       -1.27824
B          1.74397       -0.81838        0.79673
B         -1.69848       -0.91292        2.01693
B          0.29629        1.73014        0.86826
B          5.94332        1.66769       -0.71538
B          6.13784       -0.04524       -0.78957
B          5.93911       -1.77502       -0.80719
B         -0.15565        0.43519        0.09091
