45
isomer_1680.log	Energy: -113458.7542490
B          2.56752       -1.60824        0.43750
B          2.52372       -3.31368       -0.04819
B          1.22674       -4.12589        0.19068
B         -0.23223       -3.33132        0.94366
B          1.21679       -0.74041        0.83432
B         -1.58218       -0.75465        0.52038
B         -1.55444       -4.14079       -0.00741
B          3.89261       -0.85280        0.10106
B         -1.40388       -2.41312        0.04399
B          3.80446       -2.45231       -0.31293
B         -0.18004       -4.71695        0.07942
B         -2.87089       -3.28628       -0.30423
B         -2.99925       -1.72000        0.10856
B         -4.46136       -0.86856       -0.10987
B         -0.32629        1.81899        1.21078
B         -1.71035        2.56955        0.47689
B         -3.08794        1.74608        0.22382
B         -4.36046        0.78750       -0.39751
B         -4.33506        2.46461       -0.76429
B         -3.01627        3.32221       -0.26790
B         -1.64818        4.15848       -0.19964
B         -0.27451        3.43664        0.65305
B         -0.22462        4.70772       -0.31576
B          2.53726        3.38276        0.05404
B          1.18853        4.14682       -0.02056
B          2.54860        1.66159        0.63391
B          3.79769        2.51497       -0.20219
B          3.90506        0.91325        0.15168
B          1.20085        2.57727        0.74611
B          1.08626       -2.40878        0.26078
B         -3.15105       -0.00056        0.50154
B          1.20216        0.93727        1.06944
B         -4.20577       -2.50254       -0.76617
B          5.11846       -1.60856       -0.86985
B          5.15275        0.03681       -0.44875
B          5.09260        1.69082       -0.77198
B          6.12719        0.79797       -1.52033
B          6.13264       -0.69867       -1.55519
B         -1.74908        0.92412        0.98644
B         -0.24816        0.00393        1.24484
B         -0.28886       -1.73484        1.46033
B         -5.31105       -1.56320       -1.26654
B         -5.57243       -0.04095       -1.27294
B         -5.42792        1.53621       -1.27934
B         -0.09964       -1.25250       -0.23163
