45
isomer_1681.log	Energy: -113438.0170660
B         -2.50014        1.77130        0.51539
B         -2.43546        3.40889       -0.09402
B         -1.06742        4.17248       -0.30358
B          0.38443        3.39932        0.27259
B         -1.16160        0.92470        1.03390
B          1.77166        0.87416        0.74449
B          1.76947        4.13678       -0.45664
B         -3.83237        0.98502        0.21116
B          1.80747        2.54413        0.37977
B         -3.85192        2.65153       -0.05419
B          0.37115        4.72360       -0.61235
B          3.15284        3.28197       -0.35941
B          3.21517        1.72550        0.22314
B          4.63547        0.78017        0.02967
B          0.30324       -1.66703        1.30946
B          1.60674       -2.48106        0.57661
B          3.06553       -1.71118        0.37339
B          4.42952       -0.86130       -0.18794
B          4.31872       -2.51939       -0.56401
B          2.88646       -3.23659       -0.15853
B          1.44652       -3.94547       -0.28368
B         -0.02825       -3.23297        0.35689
B          0.12606       -4.44116       -0.74616
B         -2.61049       -3.16935       -0.81354
B         -1.30747       -4.03439       -0.89056
B         -2.45171       -1.74513        0.42659
B         -3.70750       -2.13123       -0.63643
B         -3.75469       -0.70987        0.12159
B         -1.76753       -3.42262        0.55475
B         -1.12814        2.64002        0.55584
B          3.27650        0.00503        0.69140
B         -1.25366       -0.66817        1.01483
B          4.46283        2.40487       -0.70258
B         -5.17278        1.87971       -0.45609
B         -5.21115        0.17126       -0.10369
B         -5.14113       -1.35542       -0.74216
B         -6.31750       -0.51195       -1.15166
B         -6.22931        0.96978       -1.11897
B          1.71205       -0.77539        1.04529
B         -1.12780       -2.32810        1.44060
B          0.37058        1.86143        0.92379
B          5.50176        1.39109       -1.16788
B          5.70128       -0.14515       -1.10378
B          5.47061       -1.69541       -1.07865
B          0.27196        0.08556        0.98534
