45
isomer_1684.log	Energy: -112192.1767165
B          2.57349        1.79532       -0.45115
B          2.53950        3.42957       -0.05891
B          1.11600        4.24660        0.19015
B         -0.32155        3.40675       -0.36340
B          1.11743        0.93820       -0.74661
B         -1.75733        0.87126       -0.84278
B         -1.71695        4.15932        0.32955
B          4.04230        0.91849       -0.38665
B         -1.69822        2.49075       -0.26979
B          3.95118        2.59833        0.07953
B         -0.30218        4.82680        0.46771
B         -3.13738        3.28780        0.34283
B         -3.15039        1.67345       -0.23135
B         -4.59814        0.82563        0.25584
B         -0.31651       -1.70024       -0.94200
B         -1.67393       -2.40250       -0.31882
B         -3.12984       -1.61207       -0.26584
B         -4.58062       -0.80190        0.23905
B         -4.41523       -2.36807        0.47510
B         -3.08630       -3.23920        0.28066
B         -1.65191       -4.09095        0.24843
B         -0.25583       -3.31132       -0.43542
B         -0.22375       -4.74235        0.36620
B          2.62442       -3.31403       -0.13598
B          1.20629       -4.14662        0.09523
B          2.65650       -1.66990       -0.47708
B          4.03822       -2.47227        0.02818
B          4.07242       -0.78891       -0.40382
B          1.21381       -2.52049       -0.65695
B          1.14458        2.62763       -0.60415
B         -3.22553        0.12507       -0.64241
B          1.23975       -0.78979       -0.73955
B         -4.45544        2.39611        0.52309
B          5.27661        1.79738        0.57768
B          5.29870        0.15922        0.32697
B          5.32899       -1.65648        0.53495
B          6.46332       -0.69302        1.13850
B          6.44978        0.84098        1.16167
B         -1.75011       -0.79132       -0.86250
B          0.79875       -1.56904        1.69309
B         -0.30836        1.81135       -0.89862
B         -5.91786        1.63070        0.72075
B         -6.09077       -0.05103        0.76455
B         -5.88685       -1.74911        0.75334
B          0.49895       -0.37609       -0.85929
