45
isomer_1689.log	Energy: -112527.7465861
B         -2.59205        1.78321        0.42780
B         -2.56786        3.42744        0.07637
B         -1.15305        4.24902       -0.14751
B          0.29446        3.39432        0.39267
B         -1.14162        0.87312        0.72257
B          1.73295        0.87550        0.81751
B          1.69392        4.17923       -0.27796
B         -4.05814        0.92356        0.33440
B          1.66982        2.48998        0.28470
B         -3.98204        2.62265       -0.09262
B          0.27549        4.85785       -0.41029
B          3.11830        3.31988       -0.30261
B          3.12854        1.68865        0.23556
B          4.58262        0.87164       -0.27062
B          0.27588       -1.66860        0.83488
B          1.65428       -2.36500        0.20102
B          3.11810       -1.57180        0.17936
B          4.57744       -0.74715       -0.29853
B          4.40567       -2.29979       -0.57110
B          3.09748       -3.18341       -0.41471
B          1.66763       -4.03397       -0.41953
B          0.27315       -3.26369        0.27791
B          0.24490       -4.69853       -0.57501
B         -2.58930       -3.26758       -0.03904
B         -1.17975       -4.08999       -0.29125
B         -2.60299       -1.63631        0.36886
B         -3.99827       -2.44840       -0.18003
B         -4.06355       -0.76459        0.30530
B         -1.17605       -2.46792        0.52186
B         -1.15983        2.59991        0.60922
B          3.20568        0.15131        0.60602
B         -1.14680       -0.74622        0.69466
B          4.42082        2.43382       -0.48950
B         -5.30722        1.83102       -0.61470
B         -5.31033        0.19606       -0.40891
B         -5.31830       -1.63078       -0.67437
B         -6.47859       -0.66196       -1.26377
B         -6.47362        0.89053       -1.23700
B          1.72768       -0.77027        0.78914
B         -0.80579       -2.29703        2.05660
B          0.28692        1.78099        0.89434
B          5.92783        1.72166       -0.71107
B          6.11761        0.00917       -0.80497
B          5.91432       -1.71980       -0.84101
B         -0.30636       -0.83774       -0.29463
