45
isomer_0169.log	Energy: -113365.6260312
B          2.67684       -1.55007        0.65595
B          2.60258       -3.16714       -0.01518
B          1.21838       -4.00338       -0.08891
B         -0.29985       -3.38172        0.72341
B          1.23869       -0.77040        0.94299
B         -1.81356       -0.99859        1.23345
B         -1.49135       -3.99122       -0.70602
B          4.03663       -0.75910        0.26698
B         -1.89291       -2.78589        0.43663
B          3.92299       -2.31102       -0.20654
B         -0.11678       -4.52051       -0.48903
B         -2.82992       -3.14379       -0.86496
B         -3.04236       -1.71345       -0.03365
B         -4.23180       -0.69386       -0.59938
B         -0.25965        1.69883        0.76585
B         -1.71331        2.49375        0.70659
B         -3.12171        1.70912        0.48891
B         -4.50497        0.83652       -0.04891
B         -4.35269        2.54025       -0.38411
B         -3.02231        3.32657        0.06108
B         -1.68644        4.18864       -0.02136
B         -0.26655        3.28942        0.32139
B         -0.28387        4.75978       -0.29299
B          2.53003        3.38734       -0.19684
B          1.14616        4.14301       -0.24342
B          2.62307        1.71155        0.53005
B          3.81143        2.55013       -0.36274
B          4.00445        0.98575        0.16854
B          1.20791        2.46380        0.30470
B          1.26729       -2.45825        0.53533
B         -3.18715       -0.06202        0.57898
B          1.26667        0.86555        0.82634
B         -4.12261       -2.24822       -1.30642
B          5.26628       -1.54264       -0.68354
B          5.28629        0.12139       -0.34252
B          5.15295        1.72067       -0.84574
B          6.19714        0.81365       -1.52838
B          6.26958       -0.66885       -1.42795
B         -1.70360        0.75158        1.06188
B         -0.22670        0.00769        1.21366
B         -0.11614       -1.70172        1.20768
B         -5.22023       -1.30584       -1.71614
B         -5.50055        0.19184       -1.41652
B         -5.39943        1.68761       -1.07953
B         -1.31890       -2.46677        1.87037
