45
isomer_1690.log	Energy: -112632.3256827
B          2.54319        1.74283       -0.45779
B          2.51817        3.37907       -0.07085
B          1.10330        4.19273        0.17989
B         -0.34609        3.34689       -0.36915
B          1.09260        0.83634       -0.76265
B         -1.78253        0.83487       -0.83879
B         -1.74263        4.11431        0.32734
B          4.01151        0.88438       -0.39248
B         -1.71899        2.43763       -0.27174
B          3.93496        2.57372        0.07154
B         -0.32465        4.79282        0.46503
B         -3.16517        3.25170        0.34275
B         -3.17582        1.63243       -0.23037
B         -4.62499        0.80173        0.26754
B         -0.32074       -1.70528       -0.92047
B         -1.69363       -2.41799       -0.29280
B         -3.15879       -1.62844       -0.24452
B         -4.61653       -0.81727        0.26052
B         -4.44002       -2.37507        0.49844
B         -3.13120       -3.25243        0.31454
B         -1.69973       -4.09996        0.29171
B         -0.31132       -3.31199       -0.39804
B         -0.27473       -4.76480        0.42356
B          2.55315       -3.31683       -0.09990
B          1.14686       -4.14737        0.14371
B          2.56105       -1.67713       -0.47263
B          3.96145       -2.49799        0.04953
B          4.02033       -0.80399       -0.39981
B          1.13473       -2.50818       -0.63422
B          1.10826        2.56031       -0.61223
B         -3.25245        0.10327       -0.63337
B          1.10106       -0.78322       -0.76968
B         -4.46474        2.35916        0.51898
B          5.26504        1.77375        0.56779
B          5.26993        0.14361        0.32680
B          5.28313       -1.68851        0.55277
B          6.44541       -0.73022        1.15534
B          6.43730        0.82246        1.16208
B         -1.77393       -0.81112       -0.84593
B          2.61114       -1.04750        0.66163
B         -0.33876        1.74477       -0.90551
B         -5.96890        1.63931        0.73496
B         -6.15480       -0.07520        0.79317
B         -5.94797       -1.80412        0.79062
B          0.32658        0.29655       -0.27730
