45
isomer_1691.log	Energy: -111318.0381898
B         -2.59787       -1.62489       -0.42697
B         -2.59770       -3.25938       -0.03193
B         -1.19523       -4.09399        0.21961
B          0.26600       -3.27383       -0.33697
B         -1.13391       -0.74289       -0.73969
B          1.74070       -0.78712       -0.82244
B          1.65192       -4.05971        0.36013
B         -4.05232       -0.74310       -0.36258
B          1.65328       -2.38585       -0.24726
B         -4.00129       -2.43111        0.10969
B          0.22377       -4.71510        0.50445
B          3.08791       -3.21957        0.36796
B          3.12270       -1.60352       -0.21326
B          4.58595       -0.79331        0.27718
B          0.31891        1.77532       -0.91344
B          1.70434        2.46940       -0.29249
B          3.15699        1.65711       -0.24363
B          4.60298        0.82557        0.26210
B          4.45159        2.38712        0.49265
B          3.15632        3.28408        0.30737
B          1.73832        4.15394        0.28361
B          0.33603        3.38454       -0.39900
B          0.32429        4.84180        0.41542
B         -2.52728        3.43601       -0.09431
B         -1.10751        4.24548        0.14192
B         -2.56190        1.79481       -0.45883
B         -3.94794        2.64022        0.06245
B         -4.03456        0.94515       -0.37831
B         -1.12305        2.60247       -0.62784
B         -1.17636       -2.46564       -0.58063
B          3.22244       -0.07777       -0.62406
B         -1.11687        0.87654       -0.75477
B          4.40179       -2.34675        0.53675
B         -5.31743       -1.60782        0.60500
B         -5.29720        0.02097        0.35590
B         -5.28101        1.85417        0.57275
B         -6.45680        0.91732        1.18276
B         -6.47313       -0.63525        1.19723
B          1.75801        0.85875       -0.83777
B         -1.38850       -0.23322        0.58886
B          0.28263       -1.67447       -0.88130
B          5.91761       -1.64964        0.74568
B          6.13063        0.06199        0.79490
B          5.95105        1.79393        0.78420
B         -0.39830       -2.40275       -0.90109
