45
isomer_1692.log	Energy: -113439.5528433
B          2.13026        1.26171       -0.30186
B          1.98772        2.79218        0.80138
B          0.66173        3.63253        0.86515
B         -0.63070        3.31139       -0.27001
B          0.76944        1.01120       -1.25266
B         -1.84841        0.81544       -0.89463
B         -2.10862        3.86015        0.47285
B          3.72788        0.84364       -0.27619
B         -2.06146        2.50526       -0.62931
B          3.38899        2.28163        0.53699
B         -0.74754        4.26058        1.00395
B         -3.50292        3.11084        0.07334
B         -3.33042        1.52519       -0.30660
B         -4.70462        0.50487       -0.15359
B         -0.15296       -1.31265       -0.56621
B         -1.46918       -2.40772       -0.28965
B         -3.06194       -1.85191       -0.45269
B         -4.57587       -1.17044       -0.36701
B         -4.26053       -2.69174        0.39806
B         -2.75716       -3.35717        0.20502
B         -1.32106       -3.92559        0.48378
B          0.12425       -3.06737       -0.30112
B          0.05949       -4.01433        1.06878
B          2.63910       -2.26389        0.68143
B          1.26968       -3.07752        1.06210
B          2.76371       -0.48313        0.28404
B          4.04584       -1.67410        0.46713
B          4.20050       -0.76113       -0.98096
B          1.46206       -2.38392       -0.88246
B          0.82216        2.36833       -0.28598
B         -3.25827       -0.15242       -0.79770
B          1.36914       -0.45434       -0.79286
B         -4.79141        2.19006        0.33534
B          4.92546        1.84557        0.45152
B          5.32780        0.37900       -0.42921
B          5.55081       -1.21661        0.12181
B          6.64295       -0.28187        0.47318
B          6.25277        1.12867        0.69607
B         -1.64468       -0.76012       -0.70828
B          2.83186       -1.58281       -1.12669
B         -0.56774        1.85742       -1.21513
B         -5.87634        1.15459        0.69469
B         -5.89900       -0.39887        0.67756
B         -5.46661       -1.86830        0.79928
B          1.08385       -1.48230        0.62736
