45
isomer_1693.log	Energy: -113671.0693978
B          3.27275        0.28109       -0.79882
B          3.69682        1.99823       -0.53137
B          2.66687        3.17171       -0.46274
B          1.01829        2.74733       -0.55216
B          1.62136       -0.25037       -0.93276
B         -1.20907        0.97516       -0.85267
B          0.02260        4.04747        0.05935
B          4.59278       -0.73410       -0.87713
B         -0.63811        2.54797       -0.38758
B          4.82817        0.95281       -0.17979
B          1.53437        4.19350       -0.14807
B         -1.59118        3.69033        0.31181
B         -2.20519        2.18842       -0.11408
B         -3.86428        1.90075        0.11139
B         -0.68853       -1.88791       -1.24430
B         -2.37286       -2.13237       -1.09440
B         -3.38526       -0.97286       -0.50282
B         -4.41759        0.27703       -0.07499
B         -4.70595       -1.29217        0.55893
B         -3.81439       -2.61259        0.09854
B         -2.88126       -3.70553       -0.47686
B         -1.31562       -3.52801       -0.64760
B         -2.22035       -2.60690        0.67800
B          0.87600       -2.94080        1.21101
B         -0.66764       -2.69771        0.94184
B          1.85610       -2.54334       -0.24288
B          2.04656       -1.88421        1.35978
B          3.02814       -1.33364       -0.14510
B          0.35066       -3.18972       -0.52198
B          2.15376        1.50966       -0.96156
B         -2.96099        0.78001       -0.75881
B          0.89552       -1.66898       -1.41319
B         -3.13216        3.37921        0.75848
B          5.89275       -0.27704       -0.02483
B          4.26174       -0.60153        0.73535
B          3.26054       -1.03526        1.92331
B          4.47894       -0.20568        2.28925
B          5.63127        0.25578        1.34420
B         -1.80686       -0.58041       -0.96942
B          0.51914       -1.42062        0.42727
B          0.50164        1.24642       -0.98820
B         -4.49136        2.85522        1.23191
B         -5.14048        1.45515        1.20423
B         -5.34746       -0.07062        1.19450
B         -0.15017       -0.28086       -0.53508
