45
isomer_1694.log	Energy: -113675.8861517
B         -2.56269       -1.73054       -0.52990
B         -2.51288       -3.30376        0.03695
B         -1.15592       -4.14911        0.10886
B          0.26939       -3.40276       -0.53926
B         -1.16999       -0.85065       -1.06882
B          1.71857       -0.84362       -0.79046
B          1.64249       -4.16982        0.25781
B         -3.98402       -0.84572       -0.22478
B          1.72495       -2.55140       -0.43141
B         -3.86915       -2.48521        0.27593
B          0.22057       -4.74794        0.35270
B          3.00884       -3.34010        0.27893
B          3.12909       -1.73311       -0.22107
B          4.54653       -0.89354        0.14665
B          0.36869        1.82543       -1.11722
B          1.80155        2.53276       -0.48796
B          3.17309        1.68067       -0.26004
B          4.53213        0.79827        0.23719
B          4.40612        2.44454        0.74992
B          3.09143        3.28094        0.26597
B          1.74747        4.14468        0.24542
B          0.35068        3.38538       -0.51632
B          0.34105        4.74613        0.35113
B         -2.42760        3.33437        0.04078
B         -1.04789        4.15723        0.12281
B         -2.50935        1.75955       -0.48838
B         -3.80973        2.53672        0.29362
B         -3.95642        0.91007       -0.21531
B         -1.11959        2.58977       -0.76488
B         -1.18534       -2.57752       -0.78896
B          3.29375       -0.01593       -0.60917
B         -1.13023        0.84866       -1.04274
B          4.32654       -2.49918        0.77124
B         -5.10408       -1.65231        0.84565
B         -5.19557        0.04392        0.52293
B         -5.06076        1.73810        0.86526
B         -6.08427        0.81316        1.61343
B         -6.10443       -0.70753        1.60610
B          1.78558        0.83038       -0.91035
B         -2.60971        0.01621       -0.74597
B          0.31324       -1.83048       -1.08786
B          5.37362       -1.56953        1.33874
B          5.61927       -0.03311        1.30567
B          5.47198        1.51861        1.30256
B          0.34297       -0.00270       -1.09537
