45
isomer_1696.log	Energy: -112903.3675363
B          2.43613        1.75356       -0.43482
B          2.25546        3.33482       -0.03054
B          0.84408        4.16824        0.16734
B         -0.59430        3.37513       -0.40349
B          0.78919        0.90978       -0.98443
B         -1.91558        0.76629       -0.92300
B         -1.98880        4.05266        0.32106
B          3.94062        0.95186       -0.28690
B         -1.99124        2.43940       -0.34770
B          3.70119        2.53975        0.12987
B         -0.58886        4.69852        0.45676
B         -3.35331        3.11338        0.33883
B         -3.33067        1.53779       -0.25979
B         -4.64356        0.59402        0.22390
B         -0.35927       -1.69303       -1.05802
B         -1.58911       -2.52867       -0.29723
B         -3.06472       -1.82365       -0.21312
B         -4.49271       -1.07370        0.28054
B         -4.30543       -2.69458        0.66753
B         -2.85794       -3.36293        0.40751
B         -1.39908       -4.09484        0.40906
B         -0.07809       -3.29058       -0.39430
B          0.03452       -4.56997        0.51292
B          2.76324       -3.23929       -0.05674
B          1.48201       -3.89509        0.13684
B          2.99173       -1.71646       -0.41265
B          4.22205       -2.47269        0.24146
B          4.14753       -0.79338       -0.30203
B          1.28271       -2.41182       -0.74239
B          0.88829        2.63043       -0.63837
B         -3.29864       -0.11530       -0.63301
B          0.77584       -0.59771       -0.99306
B         -4.68895        2.23747        0.59769
B          5.02689        1.84366        0.67554
B          5.21395        0.21206        0.44083
B          5.42325       -1.51324        0.73199
B          6.37116       -0.48004        1.34617
B          6.22130        1.02392        1.35360
B         -1.78583       -0.91863       -0.93297
B          2.22299       -0.89180       -1.30790
B         -0.57519        1.74311       -1.00978
B         -5.88828        1.25409        0.89026
B         -5.92155       -0.34592        0.90642
B         -5.63885       -1.89864        0.94807
B          1.31586        1.24201        0.47805
