45
isomer_1697.log	Energy: -112742.2190076
B          2.60779       -1.68553        0.40165
B          2.55997       -3.33366        0.02567
B          1.13633       -4.16143       -0.19997
B         -0.31512       -3.34027        0.34813
B          1.20334       -0.74849        0.71426
B         -1.76415       -0.80908        0.82610
B         -1.70574       -4.11398       -0.32949
B          4.02842       -0.83338        0.32246
B         -1.72233       -2.44404        0.25871
B          3.94791       -2.51303       -0.12483
B         -0.28386       -4.74375       -0.46121
B         -3.13044       -3.25850       -0.33736
B         -3.15659       -1.63613        0.22135
B         -4.60481       -0.79554       -0.26570
B         -0.27315        1.76768        0.85491
B         -1.67418        2.45699        0.24024
B         -3.12987        1.66282        0.21478
B         -4.58591        0.84026       -0.26469
B         -4.43181        2.40539       -0.53485
B         -3.08709        3.27300       -0.35677
B         -1.66930        4.11933       -0.36038
B         -0.27193        3.36208        0.31475
B         -0.25488        4.75744       -0.50898
B          2.57485        3.35350       -0.02142
B          1.16585        4.17983       -0.25096
B          2.61284        1.72918        0.37882
B          3.98633        2.50696       -0.17447
B          4.04251        0.86112        0.30442
B          1.18806        2.58050        0.53491
B          1.17113       -2.53099        0.56009
B         -3.22709       -0.06856        0.61589
B          1.17396        0.87306        0.68877
B         -4.47827       -2.37641       -0.52226
B          5.25889       -1.72726       -0.63377
B          5.26131       -0.08878       -0.41305
B          5.27151        1.69517       -0.66176
B          6.39680        0.74195       -1.24700
B          6.40665       -0.78502       -1.24201
B         -1.74755        0.85052        0.81339
B          1.51300        0.63710        1.84817
B         -0.34124       -1.73704        0.89033
B         -5.90565       -1.59286       -0.70921
B         -6.06980        0.07988       -0.76854
B         -5.87000        1.73537       -0.78024
B          0.19333       -1.14542       -0.20887
