45
isomer_0017.log	Energy: -113467.6580261
B          2.68255       -1.50012        0.72643
B          2.72804       -3.13256        0.91524
B          1.54177       -3.89872       -0.11359
B         -0.04090       -3.22323        0.37287
B          1.06426       -0.64538        0.96065
B         -1.72657       -0.87592        0.87638
B         -1.27818       -4.02773       -0.49177
B          3.93999       -0.47516        0.29318
B         -1.52046       -2.43852        0.19586
B          4.00044       -2.17625       -0.19706
B          0.17654       -4.53336       -0.50331
B         -2.74662       -3.33830       -0.50313
B         -3.02658       -1.84978        0.13110
B         -4.50597       -1.07058       -0.23025
B         -0.56853        1.69186        0.86878
B         -2.07448        2.39914        0.53280
B         -3.45308        1.50346        0.38348
B         -4.81625        0.51863        0.19499
B         -4.79692        2.18983       -0.40345
B         -3.49443        3.08986       -0.07222
B         -2.18009        4.01805       -0.20104
B         -0.69982        3.35754        0.37408
B         -0.82685        4.71121       -0.44731
B          2.09434        3.50435       -0.20770
B          0.62425        4.21767       -0.28276
B          2.31669        2.00127        0.42935
B          3.57730        2.84512       -0.38050
B          3.77205        1.22917        0.09375
B          0.82533        2.63521        0.45587
B          1.28197       -2.38134        1.03696
B         -3.34319       -0.20115        0.67331
B          0.92888        0.94320        0.90113
B         -4.20887       -2.64859       -0.83677
B          5.28294       -1.23572       -0.53464
B          5.22909        0.45619       -0.24224
B          4.92616        2.14461       -0.78807
B          6.03311        1.24757       -1.40922
B          6.22656       -0.25684       -1.28147
B         -1.87587        0.72361        0.79821
B          2.82726       -3.06401       -0.64649
B         -0.26438       -1.62479        1.02381
B         -5.47693       -1.88300       -1.18645
B         -5.85243       -0.37418       -1.02915
B         -5.77594        1.15704       -0.93220
B          2.47383        0.27063        0.68256
