45
isomer_0170.log	Energy: -113469.7517509
B          2.78380       -1.23496        0.98633
B          3.04752       -2.85085        0.53644
B          1.87934       -3.83871        0.48726
B          0.20700       -3.35041        0.98963
B          1.32536       -0.68405        1.40584
B         -1.43960       -1.02786        0.72855
B         -0.76603       -4.00168       -0.50061
B          3.92708       -0.21855        0.36242
B         -0.70085       -2.32021       -0.22604
B          4.21294       -1.82477        0.34746
B          0.66073       -4.36471       -0.21098
B         -2.04813       -3.27988       -0.90983
B         -2.56751       -1.98804       -0.09481
B         -4.14893       -1.40398       -0.41439
B         -0.57816        1.64841        1.18655
B         -2.17762        2.29475        0.83138
B         -3.40462        1.24387        0.55792
B         -4.57980        0.21534       -0.10685
B         -4.77723        1.92591       -0.34720
B         -3.59466        2.88174        0.20372
B         -2.33685        3.88535        0.17664
B         -0.77482        3.25832        0.72897
B         -1.02565        4.59986       -0.12763
B          1.86578        3.41492       -0.36303
B          0.40999        4.10625       -0.20681
B          2.10115        1.76456        0.00157
B          3.27486        2.79686       -0.74817
B          3.69054        1.34579       -0.04737
B          0.70192        2.48738        0.38370
B          1.37592       -2.19159        0.41305
B         -3.15298       -0.45581        0.60147
B          0.88830        0.70283        0.44135
B         -3.45861       -2.63165       -1.39549
B          5.37626       -1.01158       -0.42835
B          4.74387        0.44877       -0.92939
B          4.66594        2.15561       -1.20311
B          5.94399        1.33085       -1.58640
B          6.23117       -0.12745       -1.32116
B         -1.91305        0.59628        1.12134
B         -0.27484       -0.02614        1.51804
B         -0.09577       -1.80334        1.54329
B         -4.75098       -1.93490       -1.79913
B         -5.39147       -0.58276       -1.42847
B         -5.63102        0.91935       -1.08136
B          0.27570       -0.86911       -0.07631
