45
isomer_1701.log	Energy: -113434.6986459
B          2.66699       -1.58263        0.35982
B          2.59169       -3.26282       -0.08653
B          1.21212       -4.10190       -0.18291
B         -0.24438       -3.26688        0.20866
B          1.20955       -0.69625        0.59909
B         -1.69369       -0.75528        1.08535
B         -1.62652       -4.18508       -0.11885
B          4.09934       -0.87575        0.40729
B         -1.68793       -2.49196        0.52043
B          3.99142       -2.41794       -0.26016
B         -0.21188       -4.77014       -0.27243
B         -3.01144       -3.29715       -0.11657
B         -3.12235       -1.75276        0.40458
B         -4.40525       -0.83076       -0.26079
B         -0.35328        1.73359        0.93638
B         -1.69828        2.50513        0.27321
B         -3.07038        1.69343       -0.06092
B         -4.53981        0.82751       -0.01453
B         -4.42071        2.47157       -0.71126
B         -3.04766        3.30294       -0.37470
B         -1.63738        4.14514       -0.34909
B         -0.30656        3.37624        0.49050
B         -0.22385        4.72018       -0.36845
B          2.52099        3.23765        0.05980
B          1.16868        4.11592       -0.04601
B          2.60447        1.63129        0.67802
B          3.88028        2.36231       -0.14542
B          4.02060        0.79903        0.41939
B          1.21320        2.55640        0.68061
B          1.27276       -2.45558        0.33322
B         -3.13199        0.01001        0.47243
B          1.13098        0.83824        1.03716
B         -4.42719       -2.52816       -0.45832
B          5.28636       -1.67259       -0.69518
B          5.31310        0.00361       -0.33724
B          5.15429        1.65598       -0.67662
B          6.30518        0.76710       -1.33062
B          6.39206       -0.71998       -1.29663
B         -1.56557        0.74791        0.09593
B         -0.17860       -0.04594       -0.15315
B         -0.25579       -1.64111        0.63660
B         -5.59043       -1.64057       -0.90601
B         -5.74357       -0.07287       -0.98168
B         -5.51298        1.48580       -1.07685
B         -0.32659        0.07709        1.58247
