45
isomer_1703.log	Energy: -113583.6109658
B          2.28853       -1.50373        0.90774
B          2.29891       -2.65440       -0.34557
B          0.96533       -3.31219       -0.82029
B         -0.37151       -3.24945        0.32143
B         -0.12108       -0.30513        0.35822
B         -1.76172       -0.89301        0.69497
B         -1.90989       -3.27142       -0.89205
B          3.44776       -0.33222        0.78718
B         -1.93383       -2.59357        0.75211
B          3.67553       -2.00312        0.13066
B         -0.49095       -3.35989       -1.39600
B         -3.35366       -3.02168       -0.19854
B         -3.36729       -1.56465        0.57084
B         -4.69443       -0.51429        0.47243
B          0.05359        1.39924        0.48821
B         -1.35543        2.41663       -0.02558
B         -2.83747        1.73006       -0.00004
B         -4.40137        1.09401        0.03252
B         -4.13169        2.69435       -0.62288
B         -2.62170        3.35983       -0.46458
B         -1.16600        4.01804       -0.46812
B          0.22613        2.97605       -0.06384
B          0.32480        4.52075       -0.38170
B          2.99014        2.96671        0.05052
B          1.66236        3.81437       -0.13449
B          2.96038        1.30243        0.50998
B          4.36501        2.24980       -0.10150
B          4.54538        0.77885        0.67544
B          1.59268        2.12389        0.55784
B          0.79336       -1.81639        0.04538
B         -3.15062        0.17459        0.74761
B          1.52973        0.34587        0.92164
B         -4.67004       -2.16754       -0.28396
B          4.94607       -2.22656       -0.63590
B          4.85191       -0.56307       -0.27610
B          5.51236        1.27765       -0.54832
B          6.22913        0.05230       -1.06878
B          5.96381       -1.37391       -1.27335
B         -1.53158        0.82060        0.63689
B          0.90504       -1.03244        1.67486
B         -0.47311       -1.91574        1.41780
B         -5.68334       -1.06523       -0.68695
B         -5.82261        0.42435       -0.63777
B         -5.42398        1.95183       -0.83303
B         -0.85465       -1.75255       -0.59493
