45
isomer_1705.log	Energy: -113417.1791639
B         -2.39274       -1.83360       -0.55558
B         -2.22054       -3.42660        0.19553
B         -0.82873       -4.14774        0.19997
B          0.51560       -3.37046       -0.50529
B         -1.04125       -0.82442       -1.11004
B          1.72034       -0.75188       -0.83140
B          1.97111       -4.06153        0.15314
B         -3.74664       -1.06447       -0.09847
B          1.90090       -2.42175       -0.53945
B         -3.58141       -2.71281        0.39497
B          0.61724       -4.69245        0.39773
B          3.29736       -3.14739        0.06399
B          3.28903       -1.57650       -0.36075
B          4.61791       -0.62837        0.04520
B          0.18581        1.64813       -0.89557
B          1.56956        2.50340       -0.24111
B          3.02491        1.79557       -0.11536
B          4.50458        1.02015        0.12652
B          4.26563        2.58728        0.79678
B          2.83592        3.33280        0.44247
B          1.39683        4.12263        0.39183
B          0.08780        3.31552       -0.40713
B         -0.02988        4.69182        0.38218
B         -2.75006        3.21568       -0.17579
B         -1.40606        4.04865       -0.00624
B         -2.64266        1.53258       -0.82842
B         -4.01560        2.35035       -0.05452
B         -3.93809        0.66059       -0.27081
B         -1.32250        2.48331       -0.80191
B         -0.96043       -2.58616       -0.67903
B          3.21395        0.14195       -0.55573
B         -1.24030        0.76667       -1.57006
B          4.62735       -2.27912        0.46815
B         -4.89485       -1.90442        0.92442
B         -5.13262       -0.27327        0.37967
B         -5.20581        1.44606        0.56802
B         -6.06009        0.50741        1.46256
B         -5.91865       -1.00159        1.61157
B          1.62745        0.81927       -0.69162
B         -2.26915       -0.05024       -0.08596
B          0.43436       -1.72082       -1.01938
B          5.70066       -1.32392        0.99059
B          5.77526        0.20350        1.09305
B          5.43152        1.71861        1.21548
B         -1.01302        0.88762        0.09579
