45
isomer_1706.log	Energy: -113419.4750510
B          2.68947       -1.58517        0.74479
B          2.71647       -3.18079        0.07605
B          1.36611       -4.09390       -0.04018
B         -0.10699       -3.41213        0.56559
B          1.22511       -0.78136        1.04589
B         -1.48333       -0.81907        0.16916
B         -1.42729       -4.18413       -0.40517
B          4.00700       -0.69551        0.29741
B         -1.52078       -2.58918        0.15002
B          3.97442       -2.27574       -0.09517
B          0.02998       -4.69435       -0.41606
B         -2.81048       -3.37790       -0.49584
B         -2.94104       -1.75148       -0.00083
B         -4.44009       -1.02035       -0.11430
B         -0.34009        1.68505        0.77317
B         -1.87125        2.44442        0.59368
B         -3.22381        1.53922        0.55730
B         -4.56100        0.67514        0.04375
B         -4.57334        2.36093       -0.35919
B         -3.23062        3.17420        0.02446
B         -1.90645        4.06865       -0.11640
B         -0.42117        3.30109        0.28614
B         -0.51880        4.72053       -0.39505
B          2.36734        3.34121       -0.31414
B          0.91752        4.13183       -0.34252
B          2.50759        1.75061        0.27550
B          3.78852        2.58904       -0.39712
B          3.90559        0.99325        0.03279
B          1.09548        2.54572        0.35486
B          1.32360       -2.50685        0.67708
B         -3.16355       -0.12904        0.60858
B          1.19071        0.79257        0.68597
B         -4.19095       -2.55160       -0.89562
B          5.35719       -1.44558       -0.47882
B          5.32409        0.20960       -0.12979
B          5.17732        1.80729       -0.77385
B          6.28373        0.89639       -1.30147
B          6.42225       -0.58148       -1.11389
B         -1.69039        0.69661        1.10259
B         -0.18960        0.15459       -0.10571
B         -0.20879       -1.75598        0.91321
B         -5.33028       -1.64720       -1.28344
B         -5.65363       -0.11746       -1.07487
B         -5.59454        1.42201       -0.94438
B         -0.27125       -0.10368        1.61583
