45
isomer_1708.log	Energy: -113428.2409730
B          2.73117        1.53764       -0.70317
B          2.76558        3.21176       -0.29617
B          1.45803        4.08401       -0.03708
B         -0.06089        3.39207       -0.51742
B          1.26202        0.78584       -1.11486
B         -1.68479        0.97390       -0.99376
B         -1.32119        4.21763        0.33702
B          4.08984        0.67040       -0.41933
B         -1.54236        2.63278       -0.47850
B          4.07507        2.30232       -0.06507
B          0.10616        4.75513        0.31792
B         -2.71211        3.39161        0.46011
B         -2.97377        1.91656       -0.15759
B         -4.29540        1.03265        0.47858
B         -0.27781       -1.70431       -0.99641
B         -1.72866       -2.40215       -0.57873
B         -3.17856       -1.54229       -0.36690
B         -4.55096       -0.57128        0.09483
B         -4.42136       -2.22549        0.60046
B         -3.19584       -3.10738       -0.02130
B         -1.87187       -4.01552       -0.07226
B         -0.41018       -3.49770       -1.01772
B         -0.50436       -4.50261        0.35213
B          2.01340       -3.00553        0.38734
B          0.93583       -4.11187        0.36467
B          2.52368       -1.70599       -0.63453
B          3.42085       -2.20534        0.70742
B          3.94619       -0.99775       -0.28249
B          1.15400       -2.63255       -1.08975
B          1.39284        2.51858       -0.84338
B         -3.22178        0.21283       -0.53147
B          1.18092       -0.78514       -1.18150
B         -4.09464        2.65748        0.95032
B          5.15272        1.50380        0.73862
B          5.18280       -0.17802        0.51962
B          4.81199       -1.71734        1.16523
B          5.99839       -0.90285        1.75099
B          6.08066        0.56837        1.62475
B         -1.70583       -0.64480       -0.79477
B          0.12572       -2.65895        0.43674
B         -0.19063        1.85271       -1.11821
B         -5.27183        1.82098        1.44656
B         -5.54428        0.27320        1.36816
B         -5.39879       -1.27153        1.25925
B         -0.24997        0.07417       -1.04835
