45
isomer_1709.log	Energy: -113172.6920401
B          2.77912       -1.53522        0.96411
B          2.80107       -3.11971        0.06700
B          1.55190       -3.90131       -0.34438
B          0.02637       -3.17058       -0.09383
B          1.44652       -0.37708        0.68283
B         -1.43803       -0.85471        0.83163
B         -1.27462       -4.03494       -0.68741
B          3.98566       -0.61231        0.37679
B         -1.42197       -2.36462       -0.08620
B          4.05922       -2.23385        0.04153
B          0.17227       -4.59127       -0.72946
B         -2.73351       -3.26566       -0.54652
B         -2.90505       -1.79238        0.18028
B         -4.40347       -1.05171       -0.03856
B         -0.50617        1.80723        0.88460
B         -1.95309        2.46386        0.36844
B         -3.28578        1.56177        0.36936
B         -4.61444        0.57428        0.04452
B         -4.70176        2.20373       -0.45636
B         -3.34440        3.10040       -0.25390
B         -2.02456        4.03327       -0.41933
B         -0.58227        3.44026        0.35271
B         -0.64660        4.67598       -0.63437
B          2.19600        3.35839       -0.26310
B          0.79915        4.16683       -0.36469
B          2.38473        1.82322        0.55654
B          3.56587        2.58561       -0.36894
B          3.84312        1.12782        0.27499
B          0.93700        2.69744        0.53757
B          1.31596       -2.31381        0.49455
B         -3.15037       -0.12702        0.65689
B          0.94417        1.06488        0.82812
B         -4.23322       -2.65455       -0.56826
B          5.26670       -1.34019       -0.55263
B          5.10228        0.30664       -0.33416
B          4.99642        1.93046       -0.77848
B          6.09321        1.09544       -1.42389
B          6.18834       -0.38823       -1.36091
B         -1.71151        0.77125        0.84674
B          1.54740       -1.49419        2.00596
B          0.09212       -1.13963        1.52264
B         -5.52132       -1.87809       -0.84315
B         -5.84371       -0.36362       -0.79039
B         -5.78467        1.21250       -0.82852
B         -0.01407       -1.39659       -0.12039
