45
isomer_1713.log	Energy: -113500.9814891
B          2.23875        1.95550       -0.31755
B          2.07074        3.51244        0.20979
B          0.59006        4.21891        0.31934
B         -0.74302        3.36678       -0.33187
B          0.90092        0.94331       -0.81302
B         -1.90713        0.73518       -0.81676
B         -2.22325        3.99972        0.33610
B          3.71698        1.18326       -0.08214
B         -2.10543        2.38781       -0.40620
B          3.53393        2.83788        0.33023
B         -0.86288        4.68390        0.55301
B         -3.51958        3.05989        0.22089
B         -3.48113        1.49633       -0.33460
B         -4.82621        0.48784       -0.13409
B         -0.33701       -1.53468       -1.36898
B         -1.49431       -2.43142       -0.46931
B         -3.01634       -1.88750       -0.29033
B         -4.44533       -1.10481        0.21017
B         -4.10706       -2.70381        0.74092
B         -2.63037       -3.32905        0.37626
B         -1.10562       -3.88705        0.32282
B          0.00005       -3.19710       -0.71790
B          0.41864       -4.12323        0.65966
B          3.02951       -3.12902        0.68483
B          1.91265       -4.05325        1.10414
B          2.57269       -1.70667       -0.57211
B          4.12940       -2.08645        0.25170
B          3.86072       -0.55729       -0.21848
B          1.66257       -3.20595       -0.20677
B          0.77201        2.64921       -0.42609
B         -3.36369       -0.18637       -0.72716
B          1.07089       -0.63297       -1.05466
B         -4.81118        2.12610        0.54093
B          4.94870        2.13631        0.61982
B          5.21452        0.49147        0.13195
B          5.41141       -1.18523        0.38711
B          6.47592       -0.15874        0.89487
B          6.23343        1.31941        1.05477
B         -1.78239       -0.86013       -1.10992
B          2.37613        0.22519       -0.52561
B         -0.61939        1.71643       -0.82782
B         -5.77245        1.07072        1.02673
B         -5.79960       -0.47931        1.05736
B         -5.39433       -1.97710        1.13854
B          1.20708       -2.18646       -1.42057
