45
isomer_1715.log	Energy: -113441.9598084
B         -2.47458       -1.74120       -0.39342
B         -2.66207       -3.19330        0.79799
B         -1.38489       -4.10363        0.81390
B         -0.07547       -3.24147       -0.39233
B         -1.28490       -0.63243       -1.02308
B          1.68401       -0.78852       -1.00680
B          1.38096       -3.97912        0.24532
B         -3.68435       -0.64481        0.00704
B          1.55310       -2.48753       -0.56567
B         -3.73952       -2.13584        0.65105
B          0.05022       -4.49872        0.66421
B          2.82970       -3.27182        0.17013
B          3.02575       -1.74352       -0.31755
B          4.41311       -0.90710        0.21138
B          0.39923        1.88247       -0.97283
B          1.84756        2.55060       -0.45732
B          3.21538        1.67938       -0.16871
B          4.64522        0.72821       -0.04612
B          4.49833        2.36204        0.69007
B          3.19342        3.24623        0.35043
B          1.83363        4.13088        0.42356
B          0.44065        3.42703       -0.33758
B          0.45441        4.75112        0.56404
B         -2.37429        3.45167        0.11228
B         -0.97987        4.21694        0.28102
B         -2.45088        1.82346       -0.46568
B         -3.79837        2.69129        0.15999
B         -3.72964        1.01851        0.01686
B         -1.08892        2.68680       -0.57214
B         -1.81904       -3.42096       -0.58918
B          3.25687       -0.02764       -0.65645
B         -1.14770        0.95906       -1.03316
B          4.26566       -2.56289        0.59784
B         -5.16559       -1.31657        0.67977
B         -5.17646        0.23762        0.07851
B         -5.12896        1.93535        0.50971
B         -6.24700        1.00879        1.05983
B         -6.37164       -0.47285        0.99599
B          1.77701        0.86252       -0.73278
B         -1.16980       -2.28429       -1.41891
B          0.27757       -1.65365       -1.30367
B          5.44636       -1.75449        1.08523
B          5.69561       -0.21191        1.10671
B          5.52028        1.32884        1.14754
B          0.24993        0.09546       -0.96705
