45
isomer_1716.log	Energy: -113364.6511168
B         -2.71706       -1.37764       -0.88457
B         -2.68062       -3.10908        0.45970
B         -1.35442       -3.86554        0.34125
B          0.06602       -3.26967       -0.44065
B         -1.35096       -0.54342       -1.18808
B          1.62753       -0.84250       -0.74208
B          1.42973       -4.11021        0.32791
B         -4.00604       -0.55631       -0.29321
B          1.62355       -2.56308       -0.48641
B         -3.92829       -2.22509        0.04307
B          0.00493       -4.58465        0.46963
B          2.86784       -3.36994        0.28511
B          3.04284       -1.78810       -0.17219
B          4.49720       -0.99397        0.14979
B          0.43533        1.89532       -1.16891
B          1.87204        2.51162       -0.52513
B          3.18742        1.61288       -0.18016
B          4.55992        0.65847        0.25232
B          4.52313        2.31554        0.70345
B          3.20913        3.18026        0.25697
B          1.87241        4.11566        0.23324
B          0.49495        3.46294       -0.59859
B          0.50441        4.75226        0.35120
B         -2.29957        3.44978       -0.01298
B         -0.90711        4.22507        0.07967
B         -2.45901        1.77702       -0.57109
B         -3.64624        2.65137        0.30353
B         -3.94634        1.12219       -0.32299
B         -1.07065        2.69687       -0.76708
B         -1.31552       -2.35643       -0.86974
B          3.18489       -0.09537       -0.43790
B         -1.07278        1.01077       -1.12374
B          4.26445       -2.63455        0.72890
B         -5.00572       -1.38478        0.90087
B         -4.91108        0.28925        0.75343
B         -4.89155        1.95306        0.97981
B         -5.92510        1.05996        1.76167
B         -5.89005       -0.45084        1.79903
B          1.71276        0.79846       -0.77572
B         -2.79891       -3.00908       -1.05933
B          0.26557       -1.79655       -1.15908
B          5.38091       -1.74801        1.25497
B          5.69492       -0.20740        1.22105
B          5.61812        1.35737        1.19275
B          0.23703       -0.01396       -1.06968
