45
isomer_1717.log	Energy: -112693.2072331
B          2.45309        1.73168       -0.56201
B          2.41902        3.36377       -0.13560
B          1.01666        4.16769        0.11687
B         -0.42723        3.36575       -0.40031
B          0.96183        0.93738       -0.89523
B         -1.84963        0.83671       -0.88232
B         -1.79470        4.10189        0.32302
B          3.93612        0.91317       -0.45783
B         -1.81580        2.47192       -0.29287
B          3.75615        2.55189       -0.02384
B         -0.36253        4.71643        0.42571
B         -3.19913        3.24840        0.35866
B         -3.23807        1.64615       -0.21693
B         -4.65569        0.77600        0.28261
B         -0.43579       -1.62664       -0.99355
B         -1.74681       -2.44655       -0.32475
B         -3.18485       -1.67179       -0.26004
B         -4.61029       -0.86884        0.25074
B         -4.46378       -2.46716        0.53113
B         -3.08724       -3.28331        0.30630
B         -1.67408       -4.09715        0.26394
B         -0.32827       -3.32218       -0.43993
B         -0.26736       -4.68157        0.34512
B          2.58242       -3.25970       -0.18352
B          1.13261       -4.09889        0.05657
B          2.81921       -1.61108       -0.54343
B          4.10409       -2.40929        0.00272
B          4.06493       -0.76136       -0.47152
B          1.07082       -2.53905       -0.69130
B          1.00464        2.57945       -0.68338
B         -3.30307        0.05972       -0.63150
B          0.92321       -0.53320       -0.91712
B         -4.57372        2.39331        0.59046
B          5.11426        1.80885        0.50717
B          5.20354        0.17665        0.26640
B          5.31332       -1.56458        0.47061
B          6.35839       -0.58422        1.07843
B          6.28893        0.92936        1.10392
B         -1.82883       -0.82287       -0.89666
B          2.86717       -0.48912        1.98417
B         -0.42785        1.77167       -0.97293
B         -5.90791        1.51271        0.78583
B         -6.02360       -0.09485        0.80330
B         -5.82668       -1.67901        0.79713
B          1.64251       -1.14816        0.22577
