45
isomer_1718.log	Energy: -112502.0644697
B          2.63115       -1.61289        0.35981
B          2.63141       -3.24318       -0.05220
B          1.22893       -4.07712       -0.30600
B         -0.23085       -3.26485        0.26577
B          1.16744       -0.73626        0.68838
B         -1.70669       -0.78540        0.78382
B         -1.61888       -4.04539       -0.43312
B          4.08409       -0.72842        0.29794
B         -1.61973       -2.37794        0.19164
B          4.03319       -2.41150       -0.19162
B         -0.19051       -4.69723       -0.59079
B         -3.05603       -3.20724       -0.42564
B         -3.09036       -1.59738        0.17251
B         -4.55695       -0.78418       -0.30278
B         -0.28800        1.77795        0.89496
B         -1.67722        2.47650        0.28761
B         -3.12896        1.66271        0.23695
B         -4.57612        0.83444       -0.27078
B         -4.42792        2.39850       -0.48576
B         -3.13304        3.29531       -0.29710
B         -1.71613        4.16689       -0.27077
B         -0.30968        3.39241        0.39737
B         -0.30367        4.85808       -0.40189
B          2.55213        3.45109        0.08013
B          1.13019        4.26096       -0.14116
B          2.59066        1.80624        0.42740
B          3.97315        2.65898       -0.09139
B          4.06410        0.95955        0.33131
B          1.15150        2.61006        0.61139
B          1.21151       -2.45720        0.51122
B         -3.19030       -0.07612        0.59961
B          1.14827        0.88291        0.72039
B         -4.37187       -2.33458       -0.57933
B          5.34592       -1.58126       -0.68436
B          5.32462        0.04483       -0.41824
B          5.30493        1.88016       -0.61593
B          6.47918        0.95137       -1.24103
B          6.49756       -0.60095       -1.27172
B         -1.72618        0.86019        0.81635
B          0.90671       -2.27792        2.01096
B         -0.24716       -1.67125        0.82677
B         -5.88958       -1.63747       -0.77406
B         -6.10515        0.07427       -0.80450
B         -5.92789        1.80626       -0.77661
B         -0.36774       -0.90393       -0.08551
