45
isomer_1719.log	Energy: -113441.9638458
B          2.45274        1.82177       -0.47169
B          2.37546        3.44978        0.11058
B          0.98169        4.21589        0.27941
B         -0.43959        3.42688       -0.33784
B          1.14794        0.95894       -1.03739
B         -1.77368        0.86175       -0.72234
B         -1.83209        4.13241        0.42119
B          3.73254        1.01687        0.00709
B         -1.84723        2.55200       -0.46150
B          3.79904        2.68960        0.15636
B         -0.45246        4.75193        0.56191
B         -3.19227        3.24850        0.34871
B         -3.21350        1.68025       -0.16612
B         -4.64388        0.72964       -0.04380
B         -0.27869       -1.65393       -1.30506
B         -1.55471       -2.48797       -0.56801
B         -3.02638       -1.74295       -0.31842
B         -4.41098       -0.90537        0.21664
B         -4.26660       -2.56215        0.59828
B         -2.83145       -3.27160        0.16842
B         -1.38304       -3.97951        0.24328
B          0.07411       -3.24204       -0.39384
B         -0.05278       -4.49920        0.66278
B          2.65950       -3.19330        0.79629
B          1.38195       -4.10299        0.81258
B          2.47385       -1.74142       -0.39565
B          3.73683       -2.13540        0.65121
B          3.68592       -0.64669        0.00253
B          1.81779       -3.42166       -0.59127
B          1.08993        2.68559       -0.57293
B         -3.25537       -0.02679       -0.65309
B          1.28494       -0.63296       -1.02511
B         -4.49652        2.36468        0.69073
B          5.12874        1.93389        0.51024
B          5.17827        0.23596        0.08222
B          5.16294       -1.31677        0.68668
B          6.36714       -0.47343        1.00958
B          6.24279        1.00829        1.06936
B         -1.68520       -0.78810       -1.00901
B          1.16837       -2.28512       -1.42055
B         -0.39838        1.88196       -0.97224
B         -5.51764        1.33116        1.15016
B         -5.69426       -0.20970        1.10936
B         -5.44630       -1.75310        1.08718
B         -0.24950        0.09442       -0.96691
