45
isomer_0172.log	Energy: -112043.0630050
B         -2.58553       -1.68776       -0.54561
B         -2.57869       -3.32842       -0.17712
B         -1.17307       -4.15981        0.06742
B          0.28642       -3.32326       -0.46897
B         -1.12475       -0.79331       -0.83715
B          1.75040       -0.82148       -0.90718
B          1.67319       -4.11324        0.22177
B         -4.04482       -0.81458       -0.47373
B          1.66864       -2.42976       -0.35839
B         -3.98719       -2.50975       -0.02865
B          0.24781       -4.77819        0.34879
B          3.10474       -3.26600        0.24993
B          3.13381       -1.64057       -0.30485
B          4.59056       -0.83095        0.20548
B          0.31576        1.73479       -0.96327
B          1.69470        2.42578       -0.32469
B          3.15131        1.62025       -0.28222
B          4.59926        0.78803        0.21672
B          4.43870        2.34483        0.47183
B          3.13965        3.23803        0.29507
B          1.71728        4.10090        0.27878
B          0.32216        3.33551       -0.42275
B          0.29911        4.77929        0.41511
B         -2.54275        3.36737       -0.13065
B         -1.12830        4.18016        0.12530
B         -2.56717        1.73215       -0.52188
B         -3.95997        2.56189        0.00655
B         -4.03576        0.87377       -0.46201
B         -1.13178        2.54980       -0.67105
B         -1.15898       -2.51862       -0.70623
B          3.22751       -0.10787       -0.69040
B         -1.11606        0.82622       -0.82591
B          4.41329       -2.38933        0.43898
B         -5.30985       -1.70136        0.47379
B         -5.29694       -0.06865        0.25121
B         -5.29126        1.76085        0.49781
B         -6.46496        0.80821        1.08706
B         -6.47329       -0.74445        1.07629
B          1.75923        0.82448       -0.89575
B         -0.84533       -0.79958        2.76026
B          0.29724       -1.71521       -0.98722
B          5.92450       -1.68795        0.66626
B          6.12839        0.02373        0.74421
B          5.93987        1.75466        0.76074
B         -1.00709        0.59938        0.32633
