45
isomer_1721.log	Energy: -113670.0909674
B          2.52050       -1.74412        0.50294
B          2.46398       -3.33736        0.01218
B          1.08998       -4.16167       -0.08753
B         -0.33113       -3.38538        0.50706
B          1.12910       -0.84202        1.02230
B         -1.79551       -0.84699        0.87708
B         -1.69572       -4.15745       -0.29607
B          3.96908       -0.89397        0.24130
B         -1.78861       -2.55422        0.46617
B          3.83987       -2.52137       -0.25152
B         -0.29358       -4.76234       -0.33917
B         -3.05188       -3.29045       -0.37929
B         -3.09274       -1.68757        0.03663
B         -4.52907       -0.80453       -0.20804
B         -0.32185        1.81870        1.02912
B         -1.73102        2.55023        0.37530
B         -3.12887        1.71827        0.14814
B         -4.57167        0.87804       -0.02765
B         -4.39341        2.48713       -0.69638
B         -3.03753        3.34072       -0.29628
B         -1.66799        4.16789       -0.27499
B         -0.28432        3.40242        0.53041
B         -0.24088        4.74643       -0.36092
B          2.50511        3.32570       -0.05092
B          1.14526        4.15910       -0.11349
B          2.56204        1.74712        0.54092
B          3.85616        2.50692       -0.28507
B          3.98857        0.87055        0.23172
B          1.17565        2.58451        0.76102
B          1.13761       -2.58546        0.77002
B         -3.24995       -0.00807        0.55776
B          1.17792        0.86842        1.05475
B         -4.42110       -2.46196       -0.76264
B          5.08298       -1.72065       -0.82690
B          5.20645       -0.01954       -0.49989
B          5.09929        1.66966       -0.83868
B          6.11572        0.72417       -1.58493
B          6.10918       -0.79375       -1.57496
B         -1.69106        0.82689        0.64827
B          2.61842       -0.00327        0.76787
B         -0.32605        0.00062        1.01810
B         -5.56625       -1.53895       -1.16122
B         -5.73278        0.01329       -1.12410
B         -5.47685        1.54322       -1.16841
B         -0.37305       -1.82891        1.10997
