45
isomer_1723.log	Energy: -113354.7071230
B         -2.41852       -1.77730       -0.27205
B         -2.81700       -3.36618       -0.08306
B         -1.37143       -3.49647        0.25257
B          0.18044       -3.54291       -0.77026
B         -1.29144       -0.78458       -0.93474
B          1.61565       -0.83823       -0.65937
B          1.45346       -3.96119        0.57054
B         -3.68044       -0.72015        0.10725
B          1.51025       -2.50599       -0.26842
B         -3.91989       -2.36203        0.24396
B          0.03006       -3.85055        0.84230
B          2.86207       -3.26262        0.46758
B          2.99995       -1.71894       -0.07762
B          4.45303       -0.87787        0.17635
B          0.30216        1.76699       -1.18504
B          1.73002        2.50721       -0.55879
B          3.07327        1.68296       -0.16532
B          4.43189        0.78498        0.33381
B          4.32812        2.48012        0.75391
B          3.02256        3.28317        0.23167
B          1.64351        4.13823        0.14389
B          0.28980        3.36774       -0.62367
B          0.24771        4.75844        0.16639
B         -2.53348        3.43332       -0.29157
B         -1.15320        4.20324       -0.16359
B         -2.49030        1.74843       -0.46079
B         -3.80724        2.61227        0.14468
B         -3.83264        0.92164       -0.03401
B         -1.17780        2.56455       -0.91406
B         -1.38383       -2.59648       -1.27529
B          3.21366       -0.01758       -0.52934
B         -1.21695        0.83416       -1.00808
B          4.21819       -2.43469        0.89448
B         -5.03568       -1.46204        1.01410
B         -4.61689        0.16108        1.17801
B         -5.01600        1.81508        0.83883
B         -6.06149        0.91036        1.49040
B         -6.04374       -0.57946        1.67023
B          1.70227        0.82103       -0.84836
B         -0.18154       -2.97562       -2.19441
B          0.32510       -1.70819       -1.44901
B          5.25654       -1.49960        1.44611
B          5.54760        0.02501        1.39295
B          5.40456        1.56138        1.33661
B          0.20764       -0.04272       -0.92977
