45
isomer_1724.log	Energy: -112773.4829381
B          2.51381        1.75662       -0.47689
B          2.48582        3.38681       -0.08306
B          1.07508        4.20056        0.17216
B         -0.37468        3.36309       -0.37351
B          1.05255        0.86046       -0.78230
B         -1.81517        0.84866       -0.85353
B         -1.76496        4.12473        0.32858
B          3.97469        0.89404       -0.41501
B         -1.75064        2.45602       -0.27763
B          3.89790        2.57575        0.05317
B         -0.34390        4.79030        0.46214
B         -3.18457        3.26582        0.34473
B         -3.20436        1.65117       -0.23490
B         -4.65218        0.81524        0.26119
B         -0.36707       -1.69527       -0.94829
B         -1.73567       -2.41307       -0.31951
B         -3.19376       -1.61978       -0.26384
B         -4.64219       -0.80765        0.24633
B         -4.47651       -2.37098        0.48271
B         -3.15894       -3.24694        0.28773
B         -1.73589       -4.09251        0.25786
B         -0.35157       -3.30601       -0.43150
B         -0.31419       -4.74734        0.37897
B          2.51457       -3.30817       -0.13717
B          1.10188       -4.13778        0.10073
B          2.53135       -1.67313       -0.50649
B          3.92819       -2.48630        0.01559
B          3.98583       -0.79221       -0.42810
B          1.08860       -2.50543       -0.66755
B          1.07500        2.57791       -0.62379
B         -3.28511        0.11309       -0.64423
B          1.04487       -0.77705       -0.79747
B         -4.49793        2.38019        0.52549
B          5.22463        1.77808        0.54468
B          5.22682        0.14677        0.29671
B          5.23717       -1.67910        0.51392
B          6.38918       -0.72353        1.11263
B          6.39023        0.82137        1.12928
B         -1.81045       -0.80139       -0.86778
B          2.14683       -1.02525        1.91710
B         -0.37119        1.76382       -0.91723
B         -5.97719        1.63525        0.73541
B         -6.15736       -0.05642        0.78181
B         -5.95932       -1.76501        0.77146
B          2.23981       -0.17541       -0.67057
