45
isomer_1726.log	Energy: -111219.0105428
B         -2.55241       -1.64134       -0.50304
B         -2.55926       -3.27915       -0.12208
B         -1.16081       -4.11929        0.13346
B          0.30675       -3.29793       -0.40437
B         -1.08393       -0.76024       -0.79647
B          1.79114       -0.81073       -0.85666
B          1.68520       -4.09312        0.29697
B         -4.00526       -0.75660       -0.44266
B          1.69535       -2.41412       -0.29596
B         -3.96197       -2.44872        0.01546
B          0.25439       -4.74626        0.42426
B          3.12305       -3.25656        0.32349
B          3.16629       -1.63567       -0.24352
B          4.62748       -0.83325        0.26553
B          0.37617        1.75584       -0.93696
B          1.75822        2.44120       -0.29903
B          3.20851        1.62500       -0.24558
B          4.64844        0.78566        0.26450
B          4.49890        2.34552        0.50726
B          3.20726        3.24718        0.31938
B          1.79156        4.12065        0.29178
B          0.39297        3.36054       -0.40858
B          0.37815        4.81079        0.41822
B         -2.47256        3.41634       -0.12631
B         -1.05282        4.22030        0.12819
B         -2.50813        1.77842       -0.50520
B         -3.89631        2.62268        0.01225
B         -3.98339        0.93167       -0.44373
B         -1.06608        2.58400       -0.65578
B         -1.13170       -2.48418       -0.65257
B          3.27292       -0.10670       -0.64037
B         -1.06296        0.85922       -0.79749
B          4.43760       -2.38841        0.51025
B         -5.28009       -1.62653        0.50732
B         -5.25404        0.00429        0.27240
B         -5.23526        1.83552        0.50513
B         -6.41810        0.89632        1.09766
B         -6.43820       -0.65627        1.09865
B          1.81245        0.83516       -0.85770
B         -2.74289       -0.21918        1.69244
B          0.33150       -1.69400       -0.93478
B          5.95333       -1.69680        0.73726
B          6.16998        0.01383        0.80290
B          5.99458        1.74622        0.80566
B         -1.01601       -1.27130       -0.26159
