45
isomer_1728.log	Energy: -112736.6267330
B         -2.56330        1.78760        0.39614
B         -2.53373        3.42915        0.02979
B         -1.11790        4.23559       -0.19186
B          0.31410        3.39529        0.35531
B         -1.13620        0.89802        0.69390
B          1.74381        0.87355        0.81028
B          1.70946        4.16546       -0.31007
B         -4.01300        0.94312        0.31140
B          1.69080        2.49132        0.26219
B         -3.91444        2.62694       -0.12835
B          0.29665        4.81910       -0.44745
B          3.12774        3.30579       -0.32352
B          3.13944        1.68468        0.22094
B          4.59238        0.85086       -0.27020
B          0.29495       -1.63237        0.87637
B          1.67464       -2.36849        0.19422
B          3.11674       -1.58763        0.18939
B          4.57159       -0.76707       -0.28373
B          4.41288       -2.33050       -0.56423
B          3.06742       -3.20483       -0.40106
B          1.62822       -4.06116       -0.40830
B          0.23771       -3.28799        0.27922
B          0.18160       -4.70333       -0.54359
B         -2.64974       -3.27115       -0.03248
B         -1.26061       -4.11536       -0.27839
B         -2.64331       -1.60421        0.35941
B         -4.01141       -2.41005       -0.17298
B         -4.04650       -0.74435        0.29625
B         -1.25057       -2.47121        0.52471
B         -1.14764        2.60249        0.57192
B          3.21230        0.13431        0.60539
B         -1.17867       -0.67108        0.66478
B          4.45879        2.42813       -0.51220
B         -5.23308        1.84535       -0.64012
B         -5.25717        0.21239       -0.41757
B         -5.29643       -1.57613       -0.66272
B         -6.41109       -0.61743       -1.25296
B         -6.39821        0.91669       -1.24929
B          1.73875       -0.76642        0.80268
B         -1.07738       -1.33262        2.24554
B          0.29520        1.78532        0.86894
B          5.90298        1.65855       -0.70789
B          6.07104       -0.00925       -0.78506
B          5.85851       -1.68289       -0.80947
B         -0.19733       -1.87420       -0.16528
