45
isomer_0173.log	Energy: -113055.6600056
B         -2.52955       -1.59198       -0.62503
B         -2.45807       -3.19360       -0.07125
B         -1.06303       -4.09089        0.09304
B          0.36849       -3.34189       -0.45876
B         -1.06333       -0.76973       -0.89939
B          1.77786       -0.79829       -0.91358
B          1.75319       -4.09628        0.26071
B         -3.96391       -0.73989       -0.44221
B          1.78745       -2.45162       -0.36044
B         -3.87074       -2.35488        0.07963
B          0.33625       -4.71423        0.40070
B          3.14465       -3.22155        0.29189
B          3.18506       -1.63886       -0.25872
B          4.55679       -0.78378        0.21548
B          0.34973        1.74522       -0.97830
B          1.74001        2.50767       -0.33203
B          3.17385        1.72002       -0.26069
B          4.55865        0.90907        0.21375
B          4.50417        2.55141        0.57112
B          3.10249        3.28735        0.32576
B          1.69704        4.13529        0.32687
B          0.32618        3.38165       -0.40491
B          0.27084        4.75763        0.44832
B         -2.51548        3.36971       -0.07920
B         -1.12157        4.15404        0.12583
B         -2.53293        1.71349       -0.52892
B         -3.90862        2.54875        0.01085
B         -3.96922        0.96474       -0.41246
B         -1.12894        2.55036       -0.66431
B         -1.06567       -2.55088       -0.76002
B          3.23922        0.01719       -0.62148
B         -1.09045        0.87632       -0.87795
B          4.53789       -2.42273        0.52890
B         -5.21472       -1.56864        0.52202
B         -5.20984        0.07563        0.26756
B         -5.27273        1.75744        0.52850
B         -6.36474        0.86260        1.18397
B         -6.32517       -0.67141        1.19649
B          1.76803        0.87116       -0.91552
B         -2.11351       -0.72746        1.24171
B          0.36096       -1.67710       -0.97835
B          5.83970       -1.55381        0.80675
B          5.97334        0.09614        0.82554
B          5.81249        1.69187        0.87921
B         -1.38215       -1.58525        0.49894
