45
isomer_1730.log	Energy: -113441.9617856
B          2.47494       -1.74080        0.39634
B          2.66118       -3.19377       -0.79460
B          1.38350       -4.10339       -0.81019
B          0.07576       -3.24228        0.39386
B          1.28494       -0.63266        1.02485
B         -1.68524       -0.78875        1.00785
B         -1.38155       -3.98014       -0.24368
B          3.68602       -0.64606       -0.00380
B         -1.55347       -2.48850        0.56724
B          3.73826       -2.13579       -0.65011
B         -0.05140       -4.50016       -0.66222
B         -2.83011       -3.27263       -0.16947
B         -3.02543       -1.74398        0.31678
B         -4.41021       -0.90647       -0.21779
B         -0.39899        1.88193        0.97190
B         -1.84832        2.55169        0.46198
B         -3.21402        1.67979        0.16524
B         -4.64380        0.72808        0.04513
B         -4.49815        2.36388       -0.68940
B         -3.19397        3.24826       -0.34774
B         -1.83398        4.13264       -0.41944
B         -0.44093        3.42741        0.33935
B         -0.45467        4.75295       -0.55975
B          2.37396        3.45109       -0.11149
B          0.97985        4.21737       -0.27830
B          2.45186        1.82292        0.47009
B          3.79736        2.69052       -0.15884
B          3.73085        1.01736       -0.01031
B          1.08912        2.68657        0.57294
B          1.81966       -3.42098        0.59315
B         -3.25466       -0.02770        0.65202
B          1.14774        0.95953        1.03668
B         -4.26558       -2.56350       -0.59908
B          5.16394       -1.31574       -0.68506
B          5.17759        0.23792       -0.08239
B          5.12736        1.93512       -0.51204
B          6.24287        1.00983       -1.06889
B          6.36801       -0.47186       -1.00720
B         -1.77279        0.86106        0.71945
B          1.16923       -2.28458        1.42111
B         -0.27827       -1.65398        1.30472
B         -5.44586       -1.75460       -1.08711
B         -5.69468       -0.21134       -1.10850
B         -5.51849        1.32953       -1.14830
B         -0.24939        0.09424        0.96500
