45
isomer_1733.log	Energy: -113619.8472832
B         -2.24429        1.81855        0.17599
B         -2.00074        3.37669       -0.39369
B         -0.48793        4.05022       -0.47625
B          0.79164        3.12436        0.04863
B         -0.97088        0.79971        0.69490
B          1.90019        0.49334        0.85741
B          2.35442        3.79144       -0.24910
B         -3.83143        1.23734        0.28093
B          2.14732        2.13328        0.37600
B         -3.50027        2.73505       -0.49552
B          1.01494        4.54575       -0.54737
B          3.61005        2.84830        0.04688
B          3.47467        1.19718        0.49511
B          4.83386        0.23864        0.61708
B          0.19045       -1.85683        1.35866
B          1.02933       -1.78470       -0.30613
B          2.75812       -1.78380       -0.01667
B          4.44812       -1.27632       -0.07746
B          3.77387       -2.44024       -1.23189
B          2.23475       -2.64543       -1.29407
B          0.78969       -3.32411       -1.22549
B         -0.13346       -3.06005        0.17491
B         -0.53300       -4.02719       -1.03582
B         -2.99272       -3.14488        0.55230
B         -1.73024       -3.73956       -0.13889
B         -2.72829       -1.53005        0.81053
B         -4.23870       -2.19667        0.32015
B         -4.06089       -0.49737        0.56129
B         -1.43178       -2.50486        1.13811
B         -0.76155        2.49592        0.26988
B          3.33580       -0.49654        1.01351
B         -1.16528       -0.82744        1.07043
B          4.90728        1.88537       -0.05649
B         -4.90672        2.05766       -0.80486
B         -5.18591        0.43512       -0.27211
B         -5.38698       -1.26920       -0.29697
B         -6.34709       -0.29611       -1.08619
B         -6.13102        1.18529       -1.31631
B          1.72950       -1.15969        1.27049
B         -2.53437        0.21211        0.77935
B          0.61259        1.48182        0.53536
B          5.87495        0.79556       -0.46731
B          5.85567       -0.70790       -0.78963
B          5.26827       -2.03975       -1.21088
B          0.36806       -0.32999        0.34123
