45
isomer_1736.log	Energy: -112931.4787770
B          2.58578       -1.56124        0.38345
B          2.65941       -3.25552       -0.02915
B          1.24768       -4.09847       -0.24087
B         -0.22048       -3.30685        0.29754
B          1.17213       -0.57966        0.68742
B         -1.72838       -0.77827        0.81285
B         -1.57969       -4.09276       -0.36504
B          3.96262       -0.70720        0.31740
B         -1.67101       -2.43747        0.22375
B          3.91493       -2.40439       -0.15317
B         -0.13863       -4.67283       -0.49705
B         -3.01176       -3.26479       -0.36454
B         -3.09102       -1.66092        0.19990
B         -4.55114       -0.83249       -0.25396
B         -0.32177        1.78084        0.88968
B         -1.72701        2.48948        0.26690
B         -3.14544        1.67304        0.22449
B         -4.57227        0.82465       -0.24592
B         -4.48273        2.42503       -0.52791
B         -3.11870        3.27203       -0.32272
B         -1.72197        4.14131       -0.31771
B         -0.33531        3.39289        0.35814
B         -0.31777        4.76540       -0.43849
B          2.49328        3.40965        0.03064
B          1.08618        4.20848       -0.18372
B          2.53080        1.77658        0.42102
B          3.87274        2.57289       -0.12458
B          3.94904        0.97189        0.32518
B          1.12551        2.60810        0.58420
B          1.22442       -2.48060        0.52574
B         -3.19554       -0.05281        0.60479
B          1.10845        0.92655        0.72972
B         -4.43415       -2.43900       -0.55208
B          5.20089       -1.54717       -0.63249
B          5.16544        0.07715       -0.38878
B          5.16423        1.80179       -0.61694
B          6.27329        0.92860       -1.21103
B          6.31211       -0.58947       -1.23550
B         -1.74834        0.87105        0.82661
B          1.27590       -1.31080        1.91637
B         -0.29233       -1.64255        0.85225
B         -5.79141       -1.62355       -0.71932
B         -5.97205        0.02320       -0.74703
B         -5.82730        1.60127       -0.75199
B          0.67132       -1.20308       -0.55804
