45
isomer_0174.log	Energy: -113452.9643164
B          2.66389       -1.50564        0.59369
B          2.71114       -3.22590        0.21662
B          1.39831       -4.03668        0.06588
B         -0.14046       -3.26352        0.54591
B          1.21378       -0.74333        0.84215
B         -1.65247       -0.94996        0.99448
B         -1.35587       -4.10504       -0.40839
B          3.97562       -0.70566        0.24668
B         -1.32571       -2.31033       -0.24604
B          3.98630       -2.33448       -0.01781
B          0.03844       -4.65988       -0.27844
B         -2.71631       -3.28794       -0.59078
B         -2.92640       -1.83811        0.11582
B         -4.27086       -0.91710       -0.41208
B         -0.36170        1.77798        0.93977
B         -1.84618        2.52528        0.60889
B         -3.19892        1.63631        0.37133
B         -4.57047        0.65783        0.05951
B         -4.52878        2.35033       -0.43673
B         -3.19778        3.24018       -0.09960
B         -1.85658        4.11226       -0.18090
B         -0.39149        3.38154        0.42470
B         -0.45501        4.70600       -0.43889
B          2.38929        3.43628       -0.19772
B          1.00404        4.17406       -0.25236
B          2.51471        1.78544        0.58529
B          3.69580        2.60974       -0.36522
B          3.88931        1.04604        0.14045
B          1.09158        2.53531        0.37629
B          1.30111       -2.44293        0.85079
B         -3.16985       -0.14107        0.59163
B          1.20839        0.95746        0.99214
B         -4.11858       -2.56336       -0.91461
B          5.26869       -1.46866       -0.61124
B          5.21257        0.20801       -0.32705
B          5.03799        1.80677       -0.85053
B          6.11794        0.90132       -1.50831
B          6.25059       -0.57878       -1.35817
B         -1.75525        0.82539        0.86661
B         -0.09458       -1.27763       -0.16344
B         -0.25253       -1.82418        1.48159
B         -5.35255       -1.70634       -1.25347
B         -5.64095       -0.18400       -1.11598
B         -5.55022        1.37609       -0.97373
B         -0.24000        0.02090        1.09125
