45
isomer_1743.log	Energy: -113409.8905899
B         -2.63589        1.57009        0.46239
B         -2.62930        3.24578        0.12809
B         -1.26617        4.04465        0.00294
B          0.21058        3.37256        0.69651
B         -1.13673        0.74476        0.66808
B          1.59852        0.83053        0.53221
B          1.57505        4.10998       -0.23109
B         -4.04988        0.81537        0.31432
B          1.63257        2.54595        0.39868
B         -3.97336        2.38805       -0.21707
B          0.12911        4.57531       -0.35085
B          2.98441        3.35859       -0.24667
B          3.03880        1.73349        0.11124
B          4.47647        0.90030       -0.18628
B          0.29803       -1.67411        1.11688
B          1.76727       -2.53527        0.42084
B          3.14383       -1.67283        0.17338
B          4.54876       -0.78350       -0.13614
B          4.46930       -2.44778       -0.65784
B          3.11444       -3.29682       -0.19571
B          1.70252       -4.09546       -0.18848
B          0.30787       -3.35928        0.60260
B          0.26410       -4.64072       -0.32983
B         -2.52646       -3.26935        0.01192
B         -1.14596       -4.07740       -0.06121
B         -2.62229       -1.64625        0.55575
B         -3.89729       -2.43443       -0.24128
B         -4.03230       -0.86106        0.28743
B         -1.18743       -2.47918        0.49399
B         -1.26838        2.46441        0.60037
B          3.19013        0.02633        0.44665
B         -1.22185       -0.83159        0.99606
B          4.34872        2.56283       -0.70298
B         -5.22824        1.66099       -0.77269
B         -5.21451       -0.03275       -0.54459
B         -5.16489       -1.70475       -0.80638
B         -6.26811       -0.77313       -1.48610
B         -6.31336        0.72526       -1.44361
B          1.64506       -0.82364        0.53840
B          0.26925        0.01277        1.68074
B          0.26056        1.69336        1.16894
B          5.45634        1.63616       -1.20068
B          5.67963        0.08432       -1.17743
B          5.51696       -1.48741       -1.18643
B          0.15411       -0.17511       -0.04510
