45
isomer_1745.log	Energy: -113675.6024044
B          2.56992        1.72757       -0.53664
B          2.52268        3.30122        0.03267
B          1.16463        4.14716        0.10998
B         -0.26357        3.40257       -0.53858
B          1.17260        0.85030       -1.07164
B         -1.71269        0.84106       -0.77823
B         -1.63511        4.16684        0.26028
B          3.98163        0.83513       -0.21750
B         -1.71664        2.54856       -0.42810
B          3.87780        2.47960        0.27376
B         -0.21247        4.74512        0.35416
B         -3.00166        3.33780        0.28043
B         -3.12257        1.73023       -0.21624
B         -4.55145        0.90064        0.14118
B         -0.37499       -1.81852       -1.11219
B         -1.80949       -2.52707       -0.48349
B         -3.17633       -1.66869       -0.26736
B         -4.53464       -0.79163        0.24145
B         -4.41607       -2.43957        0.74282
B         -3.10176       -3.27199        0.26181
B         -1.76060       -4.13693        0.24524
B         -0.35912       -3.37587       -0.50159
B         -0.35415       -4.74132        0.35450
B          2.41971       -3.33550        0.03753
B          1.03740       -4.15439        0.12240
B          2.60969       -0.01696       -0.74912
B          3.80261       -2.53942        0.29439
B          3.95660       -0.91477       -0.21576
B          1.10985       -2.58602       -0.76882
B          1.19158        2.57638       -0.78605
B         -3.29593        0.02008       -0.61118
B          1.13120       -0.84853       -1.04767
B         -4.32009        2.50130        0.77272
B          5.11261        1.64530        0.84490
B          5.20076       -0.05550        0.52414
B          5.05832       -1.74662        0.86756
B          6.08570       -0.82501        1.61398
B          6.11162        0.69592        1.60569
B         -1.78708       -0.82901       -0.92022
B          2.51110       -1.76338       -0.49659
B         -0.30750        1.82874       -1.08423
B         -5.37280        1.57459        1.33667
B         -5.62248        0.04043        1.30470
B         -5.47739       -1.51290        1.30230
B         -0.34143        0.00307       -1.09407
