45
isomer_1747.log	Energy: -113406.4569309
B          2.64790       -1.60750        0.22329
B          2.71073       -3.25529        0.05192
B          1.35864       -4.01532       -0.11983
B         -0.08057       -3.22958        0.25115
B          1.81049       -0.31082        0.53096
B         -1.66810       -0.83076        0.71915
B         -1.43052       -4.10485       -0.42847
B          3.96699       -0.76055        0.09602
B         -1.56610       -2.45417        0.31738
B          4.05431       -2.44988       -0.13970
B          0.00314       -4.65800       -0.48819
B         -2.84494       -3.35611       -0.37201
B         -3.05452       -1.78678        0.18997
B         -4.55529       -1.03137       -0.03235
B         -0.42378        1.86705        1.15500
B         -1.84186        2.51164        0.41338
B         -3.21258        1.60646        0.26284
B         -4.51966        0.62509       -0.25773
B         -4.51433        2.27468       -0.69219
B         -3.19413        3.16811       -0.27981
B         -1.84789        4.07978       -0.28569
B         -0.45506        3.45247        0.66320
B         -0.44106        4.64679       -0.47915
B          2.32187        3.32579       -0.20525
B          0.97710        4.14894       -0.25852
B          2.36939        1.65172        0.41021
B          3.64767        2.48849       -0.39648
B          3.82757        0.96316        0.06901
B          1.02701        2.63875        0.50488
B          1.30326       -2.34084        0.81743
B         -3.25498       -0.10569        0.59275
B          0.98287        0.97071        0.83504
B         -4.22285       -2.61720       -0.74679
B          5.29934       -1.50277       -0.65363
B          5.17695        0.14431       -0.37170
B          5.07181        1.79241       -0.81738
B          6.21109        0.96142       -1.37322
B          6.30589       -0.51769       -1.32226
B         -1.77982        0.79894        0.97337
B         -0.26480        0.03391        1.44398
B         -0.23812       -1.71226        0.98823
B         -5.33628       -1.70460       -1.24727
B         -5.68246       -0.21487       -1.18594
B         -5.61822        1.33409       -1.16025
B          0.97389       -0.91783        1.80464
