45
isomer_1748.log	Energy: -113382.0795202
B          2.44690        1.81069       -0.64724
B          2.53033        3.52244       -0.33152
B          1.17112        4.29898       -0.32422
B         -0.29624        3.52845       -0.79161
B          1.14028        1.00944       -1.22361
B         -1.64444        0.91635       -0.85256
B         -1.62576        4.22771        0.11026
B          3.62450        0.99099        0.05256
B         -1.68340        2.58745       -0.52195
B          3.72568        2.64658        0.06640
B         -0.21752        4.84965        0.08296
B         -2.96071        3.35682        0.27309
B         -3.06403        1.76723       -0.22298
B         -4.38020        0.86934        0.35137
B         -0.27881       -1.80265       -1.68159
B         -1.46839       -2.34552       -0.46556
B         -2.88050       -1.55220       -0.25954
B         -4.19744       -0.78700        0.35880
B         -4.06432       -2.40784        0.79806
B         -2.76093       -3.20716        0.18016
B         -1.50737       -4.05087        0.00600
B         -0.16436       -3.34965       -1.03426
B         -0.04141       -4.62015        0.01607
B          2.50373       -3.19694       -0.40028
B          1.36814       -4.31391       -0.44484
B          1.98733       -1.48088       -0.07995
B          3.52920       -2.26094        0.38018
B          3.38388       -0.64545        0.34702
B          1.28072       -2.36238       -1.36848
B          1.12459        2.63726       -1.04898
B         -3.07561        0.06964       -0.52475
B          0.85505       -0.56696       -1.10741
B         -4.18122        2.49443        0.89952
B          4.95749        1.77982        0.80252
B          4.46150        0.23427        1.22600
B          4.66762       -1.48876        1.17016
B          5.83602       -0.61054        1.63735
B          5.96300        0.86762        1.50862
B         -1.12888       -0.64026       -0.76510
B          0.90356       -2.97147        0.41064
B         -0.34151        1.81933       -1.20549
B         -5.16407        1.51357        1.57326
B         -5.34695       -0.01675        1.51937
B         -5.13305       -1.56144        1.42269
B          0.14649       -1.55830        0.10884
