45
isomer_1752.log	Energy: -110435.1582662
B         -2.61284       -1.62085       -0.37418
B         -2.60822       -3.25238        0.03287
B         -1.20335       -4.08211        0.28726
B          0.25479       -3.26293       -0.27876
B         -1.15153       -0.73803       -0.69680
B          1.72297       -0.77669       -0.78596
B          1.64403       -4.04067        0.42085
B         -4.06905       -0.74173       -0.31286
B          1.64035       -2.37133       -0.19883
B         -4.01326       -2.42611        0.17168
B          0.21764       -4.69805        0.57333
B          3.07821       -3.19741        0.41914
B          3.10815       -1.58561       -0.17403
B          4.57078       -0.76867        0.30701
B          0.29543        1.78195       -0.89246
B          1.68080        2.48356       -0.27988
B          3.13531        1.67477       -0.22846
B          4.58426        0.85009        0.27998
B          4.43003        2.41295        0.49939
B          3.13239        3.30574        0.31056
B          1.71246        4.17236        0.28373
B          0.31026        3.39494       -0.38992
B          0.29726        4.85813        0.41379
B         -2.55244        3.44250       -0.07891
B         -1.13388        4.25674        0.14804
B         -2.58435        1.79860       -0.43127
B         -3.97101        2.64484        0.08702
B         -4.05498        0.94639       -0.34105
B         -1.14765        2.60808       -0.60959
B         -1.18987       -2.45965       -0.52498
B          3.20363       -0.06272       -0.59627
B         -1.13803        0.88128       -0.72384
B          4.39059       -2.32056        0.57842
B         -5.33002       -1.60203        0.66401
B         -5.31391        0.02493        0.40288
B         -5.30118        1.85970        0.60621
B         -6.47351        0.92484        1.22585
B         -6.48645       -0.62761        1.25177
B          1.73668        0.86905       -0.81344
B         -0.84626       -0.27272       -0.54535
B          0.26669       -1.66758       -0.83487
B          5.90538       -1.61867        0.77867
B          6.11480        0.09373        0.81481
B          5.93145        1.82515        0.79179
B         -0.18256       -2.91620       -1.23733
