45
isomer_1753.log	Energy: -113345.8200195
B          2.30217        1.77595       -0.70496
B          2.19284        3.42016        0.03388
B          0.84204        4.17128        0.27699
B         -0.57721        3.45769       -0.36958
B          0.95787        1.18525       -1.41024
B         -1.88613        0.86316       -1.00695
B         -1.94376        4.04139        0.57047
B          3.69893        0.99490       -0.21310
B         -1.97431        2.54995       -0.38926
B          3.47249        2.58616        0.18622
B         -0.56262        4.67061        0.68658
B         -3.24693        3.09459        0.53671
B         -3.20035        1.54501       -0.07328
B         -4.47454        0.51520        0.39976
B          0.04548       -1.75017       -1.13112
B         -1.37087       -2.48055       -0.54237
B         -2.87308       -1.79939       -0.28362
B         -4.45582       -1.10386       -0.04958
B         -4.07501       -2.68919        0.57176
B         -2.71693       -3.38469        0.19281
B         -1.34213       -4.07744        0.34359
B          0.06756       -3.30162       -0.36046
B          0.03739       -4.56363        0.68280
B          2.83626       -3.24333        0.52933
B          1.46669       -4.03745        0.56207
B          2.96633       -1.85744       -0.60825
B          4.06539       -2.28959        0.61641
B          4.02486       -0.77544       -0.11215
B          1.61877       -2.80358       -0.52741
B          0.92289        2.77229       -0.83962
B         -3.21778       -0.12477       -0.58298
B          0.97633       -0.35892       -1.81912
B         -4.52214        2.14910        0.92973
B          4.83021        1.93220        0.73774
B          5.10112        0.32468        0.39226
B          5.23403       -1.27043        1.00608
B          6.10193       -0.18560        1.64177
B          5.95722        1.26995        1.49694
B         -1.51373       -0.83184       -0.80915
B          1.76630       -1.54937       -1.57210
B         -0.58193        2.02786       -1.20025
B         -5.59507        1.16068        1.32600
B         -5.65812       -0.39768        1.20799
B         -5.25811       -1.87158        1.10753
B         -0.43850        0.23949       -1.42986
