45
isomer_1754.log	Energy: -112713.5053666
B         -2.67002       -1.47510       -0.49404
B         -2.61689       -3.22180       -0.08595
B         -1.15145       -4.18323        0.14569
B          0.29107       -3.32897       -0.40767
B         -1.13238       -0.52449       -0.83313
B          1.75499       -0.74686       -0.87126
B          1.67435       -4.06774        0.26704
B         -4.01705       -0.60401       -0.36771
B          1.67112       -2.38063       -0.33839
B         -3.98879       -2.29133        0.06823
B          0.26549       -4.73708        0.41428
B          3.06896       -3.22018        0.29604
B          3.12571       -1.59446       -0.24632
B          4.57048       -0.77292        0.28541
B          0.34054        1.83745       -0.93246
B          1.73093        2.50405       -0.28541
B          3.16379        1.68623       -0.22287
B          4.58173        0.83838        0.28963
B          4.46139        2.40697        0.55615
B          3.15135        3.29278        0.34805
B          1.76689        4.16250        0.32395
B          0.37460        3.43429       -0.38078
B          0.37910        4.82802        0.45122
B         -2.44889        3.50864       -0.05615
B         -1.04322        4.27872        0.17676
B         -2.51494        1.87695       -0.46320
B         -3.84543        2.72685        0.10138
B         -3.97133        1.08395       -0.36701
B         -1.09331        2.67235       -0.62039
B         -1.13296       -2.60971       -0.54501
B          3.23674       -0.03426       -0.61613
B         -1.09976        0.96946       -0.79505
B          4.41994       -2.35588        0.52140
B         -5.25121       -1.43698        0.61971
B         -5.19799        0.19862        0.38151
B         -5.14155        1.97619        0.61033
B         -6.27912        1.08073        1.23269
B         -6.34109       -0.44697        1.24613
B          1.77794        0.90726       -0.85216
B         -1.55889       -3.01036        1.30062
B          0.31802       -1.56140       -1.03340
B          5.83766       -1.58739        0.75171
B          6.03834        0.05652        0.82517
B          5.86179        1.70279        0.83091
B         -1.36668       -1.83793       -1.22951
