45
isomer_1756.log	Energy: -113420.7583530
B          2.54872       -1.61529        0.26002
B          2.46946       -3.30990       -0.19035
B          1.10874       -4.12814       -0.26157
B         -0.30363       -3.31203        0.21200
B          1.18183       -0.76338        0.69341
B         -1.68208       -0.72546        1.08494
B         -1.71615       -4.15655       -0.14145
B          3.91839       -0.92192        0.02292
B         -1.73248       -2.46285        0.51130
B          3.90269       -2.52982       -0.24885
B         -0.34174       -4.78282       -0.34037
B         -3.09073       -3.22670       -0.04395
B         -3.11411       -1.65697        0.40410
B         -4.48462       -0.75566       -0.12841
B         -0.29939        1.79222        0.97934
B         -1.59277        2.56365        0.21231
B         -2.98829        1.72455       -0.09592
B         -4.49675        0.90401        0.00749
B         -4.28956        2.48969       -0.81395
B         -2.95141        3.31617       -0.42880
B         -1.54459        4.16009       -0.35012
B         -0.26021        3.46157        0.63536
B         -0.13209        4.63509       -0.46305
B          2.60168        3.28249        0.04666
B          1.27597        4.11304       -0.05599
B          2.62426        1.60942        0.66417
B          3.88143        2.31588       -0.19825
B          3.93500        0.77521        0.25996
B          1.22826        2.58001        0.59561
B          1.20150       -2.54218        0.46421
B         -3.13512        0.06914        0.56134
B          1.16291        0.81650        0.91075
B         -4.49591       -2.44100       -0.39904
B          5.23156       -1.75072       -0.73407
B          5.33252       -0.11424       -0.17101
B          5.31688        1.54839       -0.48116
B          6.44870        0.71227       -1.04404
B          6.31576       -0.78500       -1.26964
B         -1.50255        0.79375        0.13921
B         -0.33438        0.16611        1.57882
B         -0.26955       -1.68416        0.77012
B         -5.62740       -1.56093       -0.85866
B         -5.71559        0.00731       -1.00172
B         -5.39775        1.52444       -1.16778
B         -0.18740       -0.13527       -0.12590
