45
isomer_1758.log	Energy: -112544.2514826
B          2.62205       -1.72246        0.42255
B          2.51250       -3.36614        0.01386
B          1.07853       -4.16146       -0.23997
B         -0.36624       -3.36741        0.28650
B          1.26016       -0.78403        0.76498
B         -1.82344       -0.77867        0.82749
B         -1.77056       -4.10901       -0.40875
B          4.08858       -0.91776        0.31485
B         -1.77963       -2.47468        0.18024
B          3.92965       -2.57815       -0.14559
B         -0.34988       -4.73251       -0.53485
B         -3.19636       -3.23401       -0.43770
B         -3.20104       -1.60400        0.15784
B         -4.61829       -0.71047       -0.35879
B          0.01148        1.80699        0.92289
B         -1.52674        2.51555        0.24050
B         -3.06885        1.70554        0.17113
B         -4.54907        0.88458       -0.36684
B         -4.31854        2.47112       -0.63241
B         -2.91057        3.32213       -0.41987
B         -1.42596        4.16213       -0.39720
B         -0.04675        3.39643        0.32306
B          0.02305        4.76170       -0.52311
B          2.81998        3.32505        0.00422
B          1.45564        4.16036       -0.23864
B          2.81052        1.68343        0.41143
B          4.18694        2.43117       -0.16004
B          4.17701        0.78516        0.30666
B          1.42393        2.57497        0.57349
B          1.18076       -2.53916        0.57665
B         -3.23854       -0.02046        0.58476
B          1.38501        0.86153        0.75118
B         -4.52621       -2.31277       -0.62967
B          5.24935       -1.84942       -0.67559
B          5.33320       -0.20310       -0.44404
B          5.41573        1.57644       -0.68059
B          6.47953        0.57073       -1.30258
B          6.42676       -0.93624       -1.30825
B         -1.75270        0.79136        0.84344
B         -0.34752       -1.34155        1.73734
B         -0.32678       -1.79819        0.77982
B         -5.91763       -1.47961       -0.85231
B         -6.02610        0.19307       -0.91906
B         -5.76222        1.81470       -0.92771
B         -1.02077        1.22714        1.40864
