45
isomer_1759.log	Energy: -113309.7127161
B         -2.56129        1.69730        0.59288
B         -2.56420        3.30567       -0.03608
B         -1.18895        4.08225       -0.20736
B          0.26598        3.37833        0.41812
B         -1.07398        0.82026        0.88088
B          1.69611        0.85778        0.85454
B          1.63056        4.12084       -0.35119
B         -4.00919        0.88269        0.42059
B          1.69895        2.51045        0.38844
B         -3.89320        2.51852       -0.19960
B          0.20954        4.66692       -0.50875
B          3.02958        3.30919       -0.28659
B          3.13982        1.77089        0.28467
B          4.56933        0.91123       -0.07602
B          0.42892       -1.71069        1.09147
B          1.80562       -2.47053        0.42569
B          3.19173       -1.64974        0.29730
B          4.52924       -0.73589       -0.15118
B          4.52838       -2.37780       -0.56700
B          3.12751       -3.19921       -0.26546
B          1.77121       -4.06058       -0.33536
B          0.37804       -3.34182        0.43137
B          0.38457       -4.63183       -0.51221
B         -2.46297       -3.34706        0.01041
B         -1.04890       -4.09064       -0.18896
B         -2.45901       -1.67171        0.38309
B         -3.81016       -2.49017       -0.24629
B         -3.93976       -0.89836        0.31885
B         -1.08397       -2.56674        0.57040
B         -1.17765        2.50814        0.57687
B          3.21480        0.06854        0.59056
B         -1.11338       -0.82814        1.01063
B          4.42576        2.53984       -0.59394
B         -5.15999        1.69707       -0.61890
B         -5.16457        0.00199       -0.40677
B         -5.07207       -1.68988       -0.76943
B         -6.17879       -0.75049       -1.38293
B         -6.22956        0.75401       -1.31867
B          1.72411       -0.77689        0.92571
B         -2.59867        0.02179        0.93278
B          0.31779        1.72848        0.94977
B          5.59398        1.63724       -1.02373
B          5.82309        0.09801       -0.98205
B          5.66872       -1.46132       -0.97592
B         -0.36307       -1.13794       -0.35066
