45
isomer_1760.log	Energy: -113055.7423399
B         -2.62890       -1.42941       -0.35911
B         -2.57770       -3.04014        0.19562
B         -1.30963       -3.99955       -0.13843
B          0.31798       -3.31724       -0.79108
B         -1.16715       -0.76668       -1.12268
B          1.72618       -0.62177       -0.44280
B          1.74610       -3.86968        0.34926
B         -4.00519       -0.64642        0.05668
B          1.69646       -2.30287       -0.14695
B         -3.80719       -2.18863        0.56256
B          0.48691       -4.72471        0.23605
B          3.06934       -3.08231        0.47137
B          3.20898       -1.52582       -0.05927
B          4.58457       -0.65868        0.25063
B          0.28189        1.71673       -1.11379
B          1.68087        2.56054       -0.65894
B          3.15757        1.88683       -0.32554
B          4.41132        0.99397        0.45096
B          4.33902        2.69929        0.60182
B          2.98773        3.43409        0.08261
B          1.59359        4.24977       -0.05355
B          0.25547        3.39898       -0.69539
B          0.18816        4.83570        0.00297
B         -2.52342        3.36524       -0.20136
B         -1.19278        4.16798       -0.16987
B         -2.58875        1.64105       -0.57313
B         -3.85730        2.61291        0.09437
B         -3.98423        1.01657       -0.12277
B         -1.20204        2.48312       -0.76677
B         -1.46249       -2.43431       -0.89929
B          3.22938        0.15412       -0.40411
B         -1.15605        0.81593       -1.05965
B          4.42105       -2.22927        0.94554
B         -5.13709       -1.32021        1.12286
B         -5.27110        0.24369        0.53263
B         -5.17155        1.94677        0.78176
B         -6.11742        1.15324        1.65144
B         -6.11550       -0.34410        1.80973
B          1.70254        0.88566       -0.88023
B         -0.50178       -5.07260       -0.69057
B          0.36567       -1.34101       -0.72716
B          5.40546       -1.24377        1.50012
B          5.68020        0.30262        1.36215
B          5.50848        1.83291        1.20567
B         -0.26765       -2.23850       -1.86437
