45
isomer_1762.log	Energy: -113493.7898208
B         -2.59579       -1.14060       -0.32240
B         -4.17748       -1.56548       -1.46795
B         -3.50282       -2.63213       -0.51275
B         -1.48699       -2.50400       -0.92820
B         -1.30057       -0.60169       -1.48266
B          0.96440       -1.04922       -0.88902
B         -0.92017       -3.21521        0.73715
B         -3.32718        0.23974        0.37355
B          0.13240       -2.38649       -0.24024
B         -4.45553       -0.98919       -0.06303
B         -2.38343       -2.85349        0.46598
B          0.59937       -3.29279        1.07162
B          1.67768       -2.28079        0.29660
B          3.21879       -2.16777        0.89511
B          1.30372        1.49047       -1.72939
B          3.00368        1.60457       -1.28353
B          3.65314        0.29165       -0.52130
B          4.25668       -0.88653        0.51623
B          5.10134        0.61788        0.47384
B          4.49468        1.73208       -0.51060
B          3.60395        3.05612       -0.55198
B          1.94901        2.96394       -1.18968
B          2.54674        4.10205       -0.23263
B         -0.44106        3.45723        0.25169
B          1.05951        3.90555       -0.07842
B         -0.86978        1.87504        0.11575
B         -1.83374        3.15568        0.94711
B         -2.50966        1.69052        0.59459
B          0.33942        2.42502       -0.81072
B         -2.78530       -1.85644       -2.08065
B          2.79335       -1.13597       -0.37185
B         -1.71109        0.44671       -0.29281
B          2.09287       -3.05804        1.79681
B         -4.98097        0.08082        0.98451
B         -3.93541        1.34432        1.46800
B         -3.25128        2.94394        1.56019
B         -4.75216        2.64762        1.94714
B         -5.52702        1.37371        1.68814
B          1.99936        0.18086       -1.15385
B          0.03287        0.52520       -0.94561
B         -0.05792       -1.74428       -1.92462
B          3.41767       -2.68812        2.40889
B          4.55201       -1.66621        2.03851
B          5.35665       -0.42865        1.57675
B         -1.34394       -2.00762       -2.62429
