45
isomer_1766.log	Energy: -113514.3820630
B         -2.37791        1.85287        0.27709
B         -2.25644        3.41830       -0.29669
B         -0.78364        4.13531       -0.42457
B          0.57661        3.33969        0.27081
B         -0.99938        0.89595        0.74068
B          1.79452        0.72723        0.79494
B          2.04698        4.03475       -0.28011
B         -3.89940        1.14337        0.27230
B          1.95477        2.40606        0.48557
B         -3.70209        2.71405       -0.39769
B          0.67653        4.66103       -0.59322
B          3.38846        3.16420       -0.04187
B          3.37382        1.56136        0.46473
B          4.77989        0.62765        0.35106
B          0.24442       -1.74758        1.06615
B          1.61011       -2.49615        0.26770
B          3.03800       -1.76512        0.15371
B          4.50516       -0.96047       -0.13467
B          4.29222       -2.52335       -0.78426
B          2.83826       -3.30650       -0.52793
B          1.41935       -3.91595       -0.69557
B          0.08452       -3.24180        0.29475
B         -0.12704       -4.17263       -0.98904
B         -2.66823       -3.17516        0.41815
B         -1.44564       -3.93558       -0.25713
B         -2.52581       -1.52577        0.42675
B         -4.04987       -2.25992        0.14924
B         -3.98343       -0.61748        0.42577
B         -1.26067       -2.56240        1.29277
B         -0.93256        2.58794        0.33799
B          3.31407       -0.13743        0.76915
B         -1.03741       -0.77114        0.66123
B          4.70412        2.31044       -0.29040
B         -5.07927        1.95776       -0.69853
B         -5.22264        0.29287       -0.27848
B         -5.29574       -1.43347       -0.35930
B         -6.40075       -0.46889       -1.01978
B         -6.30832        1.03473       -1.16113
B          1.72002       -0.89132        0.88590
B         -2.50577        0.24060        0.75157
B          0.48650        1.67578        0.80483
B          5.74803        1.29081       -0.76177
B          5.87789       -0.20788       -0.84977
B          5.54361       -1.73463       -1.06410
B         -1.15587       -2.22214       -0.45685
