45
isomer_1767.log	Energy: -113495.0379371
B         -2.76661       -1.60345       -0.50731
B         -3.10430       -3.19352       -0.34330
B         -1.80539       -3.43594        0.47079
B         -0.18818       -3.01224       -0.11995
B         -1.25760       -0.85928       -1.06498
B          1.97323       -0.82102       -0.79761
B          0.97906       -3.52470        0.99418
B         -4.11086       -0.56158       -0.34537
B          1.31971       -2.30322       -0.36213
B         -4.35053       -2.23201       -0.08902
B         -0.48848       -3.70205        1.28754
B          2.50850       -3.18982        0.63145
B          3.05952       -1.97265       -0.26924
B          4.67619       -1.30905       -0.06635
B          0.57910        1.61063       -1.01743
B          2.12392        2.29692       -0.56782
B          3.51652        1.40681       -0.47338
B          4.76232        0.38068        0.09860
B          4.85406        2.04821        0.47496
B          3.50012        2.92712        0.13830
B          2.18135        3.83854        0.24903
B          0.69543        3.19895       -0.37831
B          0.82284        4.52184        0.51934
B         -2.04714        3.33665        0.26952
B         -0.61230        4.03043        0.36697
B         -2.24098        1.77687       -0.18253
B         -3.52037        2.70001        0.47039
B         -3.81939        1.15074       -0.14567
B         -0.78338        2.43364       -0.48237
B         -1.59798       -2.65711       -1.12903
B          3.53534       -0.27635       -0.82790
B         -0.85441        0.71787       -0.79012
B          4.03716       -2.69461        0.85661
B         -5.50392       -1.26392        0.42671
B         -5.19568        0.41741        0.44783
B         -4.94926        2.06955        0.84531
B         -6.24595        1.27661        1.28501
B         -6.50434       -0.21262        1.08904
B          1.98428        0.68353       -1.11252
B         -2.52910        0.11144       -0.64581
B          0.42458       -0.65469       -0.98178
B          5.29249       -1.90814        1.28733
B          5.84870       -0.49114        1.09339
B          5.91811        1.08899        0.94826
B         -0.11638       -2.14436       -1.55064
