45
isomer_1768.log	Energy: -112460.8504058
B          2.64542       -1.55350        0.35481
B          2.66078       -3.21800       -0.05579
B          1.27833       -4.10855       -0.31137
B         -0.21859       -3.30046        0.25112
B          1.18565       -0.63248        0.68706
B         -1.74913       -0.73599        0.78779
B         -1.61181       -4.11038       -0.42331
B          4.05285       -0.68252        0.29178
B         -1.69799       -2.36587        0.16843
B          4.01790       -2.36020       -0.18423
B         -0.15065       -4.72570       -0.57051
B         -3.07814       -3.22978       -0.40375
B         -3.13632       -1.59232        0.18382
B         -4.59946       -0.77552       -0.27527
B         -0.30137        1.80100        0.87643
B         -1.70436        2.49725        0.27208
B         -3.15922        1.68228        0.23616
B         -4.61511        0.84548       -0.25186
B         -4.47291        2.41718       -0.48950
B         -3.14773        3.30288       -0.30789
B         -1.72869        4.17025       -0.29835
B         -0.32620        3.40944        0.36351
B         -0.32302        4.83272       -0.43623
B          2.52482        3.45754        0.03440
B          1.10199        4.25670       -0.18385
B          2.57156        1.82304        0.40108
B          3.92536        2.66135       -0.12643
B          4.02218        0.99964        0.30831
B          1.14193        2.62662        0.57767
B          1.26479       -2.42236        0.48861
B         -3.22403       -0.04176        0.60813
B          1.14644        0.91656        0.70645
B         -4.43787       -2.35050       -0.55292
B          5.30798       -1.53627       -0.67499
B          5.27190        0.09428       -0.42405
B          5.24209        1.88616       -0.63833
B          6.39450        0.97418       -1.24528
B          6.43726       -0.55981       -1.26709
B         -1.75406        0.89298        0.81266
B          1.61081       -1.66311        2.08661
B         -0.23839       -1.56557        0.84583
B         -5.90261       -1.60499       -0.72034
B         -6.10390        0.07843       -0.75751
B         -5.93283        1.74770       -0.74475
B         -0.19018       -2.23802        0.00085
