45
isomer_1769.log	Energy: -113370.5122560
B          2.61072       -1.57191        0.57901
B          2.62485       -3.24097        0.04839
B          1.29082       -4.08910       -0.02429
B         -0.13846       -3.36303        0.59585
B          1.24251       -0.75952        1.09023
B         -1.57655       -0.85350        0.62600
B         -1.49956       -4.19716       -0.29364
B          3.90840       -0.76400        0.15621
B         -1.47255       -2.53750        0.19929
B          3.89114       -2.35473       -0.16658
B         -0.06993       -4.69113       -0.30383
B         -2.88700       -3.35818       -0.33313
B         -2.93475       -1.72132        0.06363
B         -4.39872       -0.86183       -0.21501
B         -0.33577        1.85282        1.18438
B         -1.72465        2.57538        0.48765
B         -3.12186        1.72689        0.28392
B         -4.46008        0.79224       -0.22781
B         -4.39596        2.44344       -0.67981
B         -3.05105        3.28387       -0.24703
B         -1.72779        4.15821       -0.25304
B         -0.31056        3.44395        0.57006
B         -0.30673        4.67931       -0.40009
B          2.45049        3.36447       -0.05942
B          1.09892        4.13094       -0.13279
B          2.51100        1.69512        0.57332
B          3.72736        2.52711       -0.26325
B          3.87440        0.97255        0.13314
B          1.17631        2.58030        0.72822
B          1.32783       -2.50616        0.77659
B         -3.20232       -0.00039        0.53342
B          1.20496        0.92422        1.11105
B         -4.30366       -2.50516       -0.65559
B          5.15174       -1.51129       -0.78259
B          5.09352        0.14099       -0.49039
B          5.04706        1.73954       -0.83918
B          6.07047        0.86997       -1.56693
B          6.11885       -0.61802       -1.53592
B         -1.72369        0.92330        0.94133
B         -0.17910       -0.00749        1.28294
B         -0.15952       -1.84381        1.38681
B         -5.35233       -1.58272       -1.23199
B         -5.56451       -0.06951       -1.23022
B         -5.43371        1.47409       -1.19748
B         -0.09051       -1.29029       -0.22143
