45
isomer_0177.log	Energy: -113602.2267126
B         -2.32210        0.92927        0.95004
B         -2.30081        2.69788        0.61461
B         -1.40692        3.14338       -0.64740
B          0.37082        3.27414        0.05489
B         -0.93583        1.40008        1.64537
B          2.04410        1.17633        1.26495
B          1.37156        3.03667       -1.38558
B         -3.85197        0.28249        0.48655
B          1.91226        2.53593        0.14764
B         -3.70819        1.96704        0.48885
B         -0.18146        2.90796       -1.50738
B          2.90989        2.71057       -1.18491
B          3.21653        1.59959        0.01114
B          4.55983        0.59983       -0.29362
B          0.29457       -1.16353        0.58599
B          1.60059       -2.21224        0.67725
B          3.15109       -1.67720        0.74230
B          4.68350       -0.94681        0.40808
B          4.32556       -2.64597        0.01920
B          2.85848       -3.25803        0.29147
B          1.37941       -3.88141        0.05203
B          0.07300       -2.78141        0.24104
B         -0.06390       -4.25666       -0.31331
B         -2.75307       -2.56555       -0.37052
B         -1.41750       -3.43388       -0.30623
B         -2.52335       -0.71375        0.23062
B         -4.19444       -2.64355       -0.94473
B         -4.03130       -1.36906       -0.01428
B         -1.27387       -1.74986       -0.05166
B         -0.79876        3.06930        1.16794
B          3.42017        0.10023        0.88229
B         -1.01743       -0.02090        0.13910
B          4.35149        1.92335       -1.33166
B         -5.08830        1.42603        0.02673
B         -5.34469       -0.30481       -0.09695
B         -5.47830       -1.79592       -0.98102
B         -6.52992       -0.61753       -1.12686
B         -6.34395        0.80171       -0.70005
B          1.81522       -0.53162        0.93758
B         -0.64575        1.66542       -0.17687
B          0.65871        2.12822        1.47332
B          5.54968        1.03297       -1.46768
B          5.75875       -0.44959       -0.96140
B          5.50626       -1.90038       -0.58832
B          0.40031        0.51127        0.91144
