45
isomer_1770.log	Energy: -113415.5481049
B         -2.51104        1.65567        0.54722
B         -2.51287        3.35575       -0.02893
B         -1.17466        4.18443       -0.11292
B          0.30261        3.48855        0.62286
B         -1.16121        1.09673        1.06794
B          1.62861        0.81903        0.78953
B          1.64865        4.15168       -0.29538
B         -3.82674        0.84981        0.07453
B          1.68351        2.54373        0.41575
B         -3.79440        2.45745       -0.27641
B          0.24299        4.71244       -0.42108
B          2.99387        3.30006       -0.32380
B          3.05266        1.71685        0.13588
B          4.41064        0.81149       -0.33321
B          0.36326       -1.84949        1.09132
B          1.71472       -2.55482        0.43513
B          3.11195       -1.70547        0.19551
B          4.54091       -0.82527       -0.09545
B          4.39212       -2.46883       -0.66395
B          3.07999       -3.30511       -0.22423
B          1.69530       -4.14416       -0.33327
B          0.25839       -3.37243        0.31521
B          0.27891       -4.74059       -0.45554
B         -2.47231       -3.29335       -0.05782
B         -1.15790       -4.13746       -0.17606
B         -2.60152       -1.69202        0.49620
B         -3.88307       -2.51505       -0.22937
B         -3.85241       -0.87250        0.06519
B         -1.18764       -2.56680        0.77504
B         -1.19646        2.72174        0.75135
B          3.17612        0.01969        0.47745
B         -1.87381       -0.28302        0.78507
B          4.34269        2.46226       -0.78820
B         -5.08049        1.67405       -0.83923
B         -5.02460       -0.00225       -0.63284
B         -5.11840       -1.68985       -0.85946
B         -6.12581       -0.74422       -1.56651
B         -6.13712        0.76111       -1.52768
B          1.65681       -0.82170        0.67978
B          0.17294       -0.00891        1.23838
B          0.31370        1.89865        1.17830
B          5.48320        1.56913       -1.23181
B          5.67203        0.01304       -1.22039
B          5.45802       -1.51749       -1.21365
B         -0.98213       -1.15258        1.76953
