45
isomer_1771.log	Energy: -113468.0805709
B          2.32085        1.94327       -0.61949
B          2.17411        3.53731        0.05526
B          0.78342        4.26933        0.23818
B         -0.60870        3.46419       -0.41789
B          1.03713        1.15111       -1.27720
B         -1.89385        0.86089       -1.03450
B         -1.99268        4.04406        0.47032
B          3.68917        1.12546       -0.18198
B         -1.97234        2.51400       -0.44309
B          3.52962        2.72528        0.25517
B         -0.63560        4.73470        0.58407
B         -3.26327        3.05841        0.49478
B         -3.23887        1.52646       -0.13507
B         -4.47069        0.44665        0.38642
B         -0.21962       -1.61796       -1.30286
B         -1.37167       -2.48638       -0.50750
B         -2.90694       -1.85251       -0.27864
B         -4.43965       -1.18453       -0.00746
B         -3.98984       -2.80608        0.62911
B         -2.58651       -3.41489        0.15250
B         -1.08478       -4.01233        0.19255
B          0.34069       -3.12059       -0.49080
B          0.26299       -4.47482        0.47432
B          3.05443       -3.43357        0.83742
B          1.71725       -4.09855        0.68808
B          2.61574       -1.23048       -0.99489
B          3.62186       -2.09786        0.32194
B          3.88200       -0.59398       -0.32737
B          1.31964       -2.06787       -1.47454
B          0.92371        2.81169       -0.77612
B         -3.25336       -0.17382       -0.64204
B          1.20622       -0.41408       -1.45006
B         -4.49065        2.07947        0.94090
B          4.78185        1.96082        0.88928
B          5.03327        0.36132        0.41779
B          4.94918       -1.28664        0.82856
B          5.90719       -0.41504        1.61658
B          5.77833        1.06500        1.68060
B         -1.62906       -0.81828       -0.94416
B          2.15803       -2.84281       -0.33870
B         -0.55106        1.98937       -1.19202
B         -5.50865        1.05093        1.42402
B         -5.52812       -0.50057        1.32303
B         -5.11106       -1.98376        1.22513
B         -0.33971        0.20769       -1.28962
