45
isomer_1772.log	Energy: -111175.9894487
B         -2.59608       -1.60432       -0.46012
B         -2.60690       -3.24463       -0.09014
B         -1.21003       -4.09254        0.14783
B          0.25650       -3.27393       -0.39693
B         -1.12628       -0.72764       -0.76009
B          1.74792       -0.79018       -0.84508
B          1.63734       -4.07981        0.28730
B         -4.04446       -0.71372       -0.38143
B          1.64985       -2.39690       -0.29439
B         -4.00473       -2.40908        0.06491
B          0.20481       -4.72759        0.42235
B          3.07903       -3.24970        0.30721
B          3.12459       -1.62521       -0.24922
B          4.59355       -0.83260        0.25276
B          0.34362        1.78298       -0.89606
B          1.73402        2.45801       -0.26532
B          3.18112        1.63519       -0.22970
B          4.62162        0.78617        0.26245
B          4.48099        2.34500        0.51696
B          3.19178        3.25349        0.34615
B          1.77974        4.13327        0.33648
B          0.37194        3.38398       -0.35706
B          0.37050        4.82865        0.47958
B         -2.49082        3.45029       -0.05005
B         -1.06545        4.24636        0.19777
B         -2.53680        1.81514       -0.43964
B         -3.91681        2.66190        0.09528
B         -4.01519        0.97441       -0.37132
B         -1.09254        2.61547       -0.59705
B         -1.18041       -2.45229       -0.62740
B          3.23456       -0.09407       -0.63667
B         -1.09820        0.89168       -0.75039
B          4.39892       -2.38854        0.48862
B         -5.31500       -1.58452        0.57349
B         -5.28378        0.04772        0.34934
B         -5.25498        1.87723        0.59422
B         -6.43687        0.93919        1.19046
B         -6.46378       -0.61328        1.18117
B          1.77646        0.85557       -0.83523
B         -1.23534       -2.44322        0.73425
B          0.28381       -1.66657       -0.91672
B          5.91955       -1.70506        0.70737
B          6.14426        0.00413        0.78267
B          5.97650        1.73721        0.79858
B         -1.12855       -0.00765       -0.66717
