45
isomer_1773.log	Energy: -113474.6838480
B         -2.52680        1.64064        0.75687
B         -2.53676        3.33212        0.11707
B         -1.21638        4.13732       -0.01908
B          0.32409        3.45984        0.68042
B         -1.13469        0.98666        1.21513
B          1.57128        0.83356        0.53555
B          1.63039        4.14996       -0.28084
B         -3.70707        0.75819        0.10258
B          1.65555        2.53665        0.31455
B         -3.85682        2.42127       -0.02767
B          0.20951        4.66853       -0.37062
B          3.01695        3.31298       -0.38408
B          2.99857        1.72015       -0.11946
B          4.36427        0.79028       -0.53856
B          0.37671       -1.70517        1.18816
B          1.83631       -2.51312        0.76429
B          3.15543       -1.68013        0.26987
B          4.56109       -0.77351        0.03038
B          4.57345       -2.47604       -0.32194
B          3.20879       -3.30672        0.10807
B          1.83224       -4.06478       -0.00750
B          0.31472       -3.27022        0.64094
B          0.42878       -4.54818       -0.32539
B         -2.26998       -3.08526       -0.46882
B         -0.91940       -3.89057       -0.29817
B         -2.23903       -1.39490       -0.69850
B         -3.67034       -2.41457       -0.62839
B         -3.77670       -0.97300        0.30536
B         -1.15349       -2.20457        0.59818
B         -1.18037        2.65316        0.73975
B          3.08491        0.01996        0.27980
B         -2.03673       -0.19011        0.36877
B          4.37459        2.48323       -0.81142
B         -5.01180        1.58880       -0.67271
B         -5.11184       -0.10162       -0.27716
B         -5.11498       -1.72090       -0.78652
B         -6.25652       -0.83527       -1.21663
B         -6.06417        0.64094       -1.35063
B          1.59619       -0.79793        0.55652
B         -2.68409       -1.91606        0.95999
B          0.32191        1.78357        1.13232
B          5.58881        1.56679       -1.14706
B          5.80398        0.02257       -1.03789
B          5.61771       -1.53431       -0.89670
B          0.02175       -0.11022        1.02121
