45
isomer_1776.log	Energy: -113468.4397353
B         -2.17024       -1.53297       -0.06645
B         -2.65955       -3.22474       -0.42047
B         -1.45498       -4.13211       -0.67798
B          0.07484       -3.29262       -0.91892
B         -1.29615       -0.67545       -1.25525
B          1.60794       -0.93694       -0.96703
B          1.17435       -4.13553        0.12977
B         -3.44640       -0.70619        0.51618
B          1.08204       -2.32054        0.10806
B         -3.71185       -2.29148        0.24674
B         -0.11703       -4.78582       -0.32265
B          2.45485       -3.32320        0.58009
B          2.73976       -1.85271       -0.02193
B          4.15409       -1.01961        0.53029
B          0.36315        1.77149       -1.08299
B          1.84217        2.46645       -0.60744
B          3.18446        1.57989       -0.27286
B          4.49075        0.57258        0.11897
B          4.41723        2.29412        0.61561
B          3.20069        3.21192        0.04726
B          1.87760        4.15318       -0.04281
B          0.43997        3.40262       -0.59329
B          0.50805        4.85754       -0.00083
B         -2.32072        3.53630       -0.07135
B         -0.95729        4.29605       -0.17474
B         -2.31971        1.79549       -0.32740
B         -3.57231        2.69205        0.39518
B         -3.45447        1.05001        0.47110
B         -1.10734        2.70597       -0.94383
B         -1.36544       -2.41785       -1.27118
B          3.14077       -0.20169       -0.57096
B         -1.20853        1.00095       -1.19077
B          3.76412       -2.58484        1.16551
B         -4.94328       -1.44422        0.89711
B         -4.67215        0.20114        1.13615
B         -4.89188        1.87281        0.93980
B         -6.10022        0.97946        1.31092
B         -6.13461       -0.51545        1.28464
B          1.71561        0.79474       -0.82928
B         -0.32366       -1.39530        0.09013
B          0.21565       -1.71824       -1.59491
B          4.95640       -1.76178        1.66814
B          5.33059       -0.26197        1.50536
B          5.30972        1.27783        1.29824
B          0.18304        0.01867       -0.82992
