45
isomer_1779.log	Energy: -113421.8846239
B         -2.60586       -1.53034       -0.52928
B         -2.65620       -3.11889        0.86211
B         -1.41015       -3.94613        0.17947
B          0.10847       -3.20423       -0.32769
B         -1.21853       -0.65480       -0.95903
B          1.73806       -0.83903       -1.03934
B          1.40690       -4.08374        0.34481
B         -3.78876       -0.56912       -0.00516
B          1.63243       -2.50559       -0.50014
B         -3.81352       -2.21295        0.49567
B         -0.00135       -4.60491        0.44076
B          2.83681       -3.29676        0.33731
B          3.06644       -1.79067       -0.27231
B          4.41839       -0.92744        0.31183
B          0.41466        1.84629       -0.99134
B          1.88753        2.50316       -0.54220
B          3.26295        1.63627       -0.27196
B          4.67928        0.68065       -0.05639
B          4.53996        2.32628        0.60763
B          3.23996        3.20700        0.21728
B          1.89951        4.11783        0.27796
B          0.48622        3.39821       -0.42222
B          0.53047        4.76769        0.42867
B         -2.30389        3.46308        0.16107
B         -0.89692        4.24411        0.22961
B         -2.42207        1.85019       -0.39801
B         -3.72951        2.73122        0.29820
B         -3.73479        1.07293        0.13445
B         -1.03976        2.65764       -0.54728
B         -2.67167       -3.19321       -0.70099
B          3.31201       -0.09000       -0.65538
B         -1.12858        0.93291       -0.97426
B          4.26318       -2.57097        0.75610
B         -5.23416       -1.29105        0.62948
B         -5.19323        0.30686        0.10868
B         -5.09106        1.99860        0.65269
B         -6.21546        1.08436        1.16142
B         -6.37336       -0.40164        1.04638
B          1.81151        0.78580       -0.83037
B         -1.25201       -2.43740       -1.00997
B          0.25033       -1.74112       -1.17052
B          5.45059       -1.75391        1.21061
B          5.71649       -0.21417        1.17333
B          5.54270        1.31738        1.14206
B          0.28599        0.04965       -1.00374
