45
isomer_1781.log	Energy: -113371.2396914
B          2.58790       -1.57784        0.56221
B          2.63552       -3.26038        0.08578
B          1.30706       -4.10329       -0.11731
B         -0.14344       -3.34084        0.46498
B          1.12145       -0.78280        0.95397
B         -1.51763       -0.87160        0.82987
B         -1.47328       -4.08965       -0.45094
B          3.94104       -0.75600        0.27392
B         -1.48504       -2.42795        0.19053
B          3.91399       -2.37478       -0.07286
B         -0.06696       -4.68884       -0.44737
B         -2.85995       -3.25387       -0.46157
B         -2.98130       -1.70622        0.13247
B         -4.35346       -0.86031       -0.30547
B         -0.29061        1.81640        0.91896
B         -1.70350        2.52513        0.34318
B         -3.05108        1.67916        0.22476
B         -4.41662        0.78008       -0.19485
B         -4.49730        2.44866       -0.48848
B         -3.11507        3.30523       -0.22280
B         -1.72317        4.16142       -0.23909
B         -0.30339        3.40196        0.47657
B         -0.29611        4.75076       -0.39922
B          2.49748        3.38344       -0.11249
B          1.12914        4.20057       -0.18054
B          2.51252        1.69901        0.48608
B          3.80650        2.53298       -0.27105
B          3.92577        0.95598        0.23631
B          1.19362        2.59653        0.55641
B          1.25141       -2.49236        0.76783
B         -3.13630       -0.06516        0.52045
B          1.15726        0.86838        0.86872
B         -4.29148       -2.52229       -0.71295
B          5.20429       -1.54248       -0.66965
B          5.12839        0.10225       -0.42224
B          5.14268        1.75369       -0.75069
B          6.16590        0.85099       -1.45617
B          6.18708       -0.65111       -1.42061
B         -1.68560        0.85683        0.78397
B         -0.08461       -1.27973       -0.11859
B         -0.22121       -1.86057        1.50622
B         -5.49316       -1.61984       -1.10542
B         -5.73522       -0.08409       -1.03078
B         -5.60724        1.50288       -0.94675
B         -0.27629        0.03967        1.41470
