45
isomer_1782.log	Energy: -113284.4666698
B          2.40671        1.75903       -0.58283
B          2.29146        3.45852       -0.00600
B          0.92042        4.21629        0.13437
B         -0.52896        3.43841       -0.48647
B          1.03119        1.07381       -1.00670
B         -1.86392        0.88748       -1.03998
B         -1.88388        4.08024        0.34156
B          3.77710        1.04632       -0.16230
B         -1.92739        2.51618       -0.49132
B          3.65240        2.67026        0.16335
B         -0.52455        4.73146        0.45507
B         -3.23040        3.16333        0.38906
B         -3.26796        1.64938       -0.26612
B         -4.56116        0.65805        0.29361
B         -0.39012       -1.64528       -1.07711
B         -1.66657       -2.49948       -0.52124
B         -3.06693       -1.77608       -0.28615
B         -4.50591       -1.00062        0.08857
B         -4.24672       -2.56409        0.68737
B         -2.80731       -3.32662        0.31044
B         -1.38808       -4.03875        0.29694
B         -0.06098       -3.18534       -0.50759
B          0.06987       -4.49621        0.49347
B          2.70966       -3.20046        0.07350
B          1.47949       -4.03026        0.75404
B          2.74273       -1.54643       -0.40961
B          4.07991       -2.26620        0.27039
B          3.96106       -0.65950       -0.18663
B          1.26446       -1.94851       -0.71376
B          0.98323        2.69791       -0.67433
B         -3.25437       -0.05482       -0.55758
B          1.91037       -0.27216       -0.69999
B         -4.52867        2.30070        0.75454
B          4.99691        1.98866        0.74006
B          5.06144        0.31290        0.53161
B          5.29963       -1.38904        0.73445
B          6.28460       -0.35119        1.36729
B          6.12455        1.14673        1.39580
B         -1.70211       -0.75143       -0.98293
B          1.37586       -3.71748       -0.84577
B         -0.50135        1.80662       -1.07796
B         -5.65822        1.33304        1.19608
B         -5.71244       -0.20152        1.19075
B         -5.36757       -1.73245        1.20784
B          0.22253       -0.28138       -1.28777
