45
isomer_1783.log	Energy: -112710.0122799
B         -2.86999       -1.43143       -0.43717
B         -2.93940       -3.24948       -0.03540
B         -1.59042       -4.31601        0.39389
B          0.25111       -3.38747       -0.30312
B         -1.44222       -0.55419       -0.72941
B          1.83471       -0.69514       -0.84935
B          1.55443       -4.16103        0.43529
B         -4.13770       -0.55411       -0.35291
B          1.65789       -2.49255       -0.18183
B         -4.17762       -2.24506        0.08824
B          0.01507       -4.81336        0.58741
B          3.02008       -3.29894        0.42636
B          3.18449       -1.65844       -0.18309
B          4.64001       -0.81422        0.27527
B          0.33865        1.80264       -0.92892
B          1.80894        2.48266       -0.29962
B          3.25386        1.65398       -0.24947
B          4.68814        0.80370        0.24509
B          4.57584        2.38866        0.51026
B          3.22827        3.25552        0.30151
B          1.82866        4.11413        0.28974
B          0.40691        3.40461       -0.37880
B          0.44109        4.74003        0.42659
B         -2.45103        3.48353       -0.02028
B         -0.99178        4.21784        0.18757
B         -2.57843        1.85877       -0.42211
B         -3.86719        2.71829        0.13676
B         -4.03489        1.11197       -0.33662
B         -1.14309        2.63225       -0.59347
B         -1.55625       -2.29815       -0.62564
B          3.31229       -0.03903       -0.63263
B         -1.23606        0.91865       -0.75380
B          4.48410       -2.41610        0.60006
B         -5.38998       -1.37909        0.62670
B         -5.28270        0.25443        0.39572
B         -5.16801        1.99768        0.63487
B         -6.31109        1.13566        1.22871
B         -6.43552       -0.36612        1.25044
B          1.86069        0.92197       -0.85233
B         -1.09401       -3.41091       -0.80275
B          0.04040       -1.73025       -0.96517
B          5.84894       -1.61042        0.75153
B          6.07211        0.01557        0.77071
B          5.94294        1.58299        0.74984
B          0.40778       -0.57398       -0.37866
