45
isomer_1784.log	Energy: -111533.4449717
B         -2.59097       -1.48900       -0.58478
B         -2.64262       -3.13488       -0.24419
B         -1.26798       -4.01737       -0.00258
B          0.22342       -3.22186       -0.51298
B         -1.09842       -0.63978       -0.84938
B          1.77464       -0.76411       -0.89687
B          1.57680       -4.06979        0.17530
B         -4.02056       -0.56822       -0.50974
B          1.63399       -2.37765       -0.37618
B         -4.02393       -2.27158       -0.09309
B          0.12877       -4.68812        0.27959
B          3.03581       -3.27210        0.22931
B          3.12443       -1.63954       -0.29752
B          4.60323       -0.88836        0.23814
B          0.42755        1.83984       -0.92098
B          1.82349        2.47298       -0.25974
B          3.25169        1.61798       -0.21932
B          4.66642        0.72898        0.27697
B          4.55627        2.28584        0.55722
B          3.28965        3.22536        0.38528
B          1.89737        4.13605        0.37228
B          0.48330        3.43018       -0.35330
B          0.50177        4.85969        0.50879
B         -2.38131        3.55414       -0.08361
B         -0.94250        4.31417        0.19742
B         -2.45751        1.92746       -0.50277
B         -3.82600        2.79493        0.02853
B         -3.95466        1.11842       -0.46925
B         -0.99413        2.69841       -0.62654
B         -1.19193       -2.36488       -0.74808
B          3.27306       -0.10466       -0.65619
B         -1.03521        0.97811       -0.81054
B          4.37151       -2.44352        0.44369
B         -5.32283       -1.42738        0.41242
B         -5.25297        0.20745        0.21773
B         -5.18771        2.03132        0.49544
B         -6.39787        1.10926        1.05901
B         -6.45847       -0.44183        1.02177
B          1.83887        0.88019       -0.85740
B         -2.68065       -2.18363        2.49295
B          0.29291       -1.60666       -1.00372
B          5.90351       -1.79762        0.69494
B          6.16433       -0.09537        0.80361
B          6.03416        1.64044        0.84805
B         -1.14869       -2.34330        0.14031
