45
isomer_1785.log	Energy: -113280.9002361
B          2.56360        1.83888       -0.79778
B          2.47428        3.41924        0.04974
B          1.12151        4.16865        0.27570
B         -0.36124        3.52655       -0.50560
B          1.11317        1.18729       -1.28998
B         -1.62538        0.88773       -0.76037
B         -1.70977        4.10018        0.39493
B          3.85888        0.98040       -0.34122
B         -1.74914        2.58789       -0.50010
B          3.82094        2.60218        0.07323
B         -0.30926        4.64735        0.62888
B         -3.10168        3.25851        0.25973
B         -3.12207        1.70818       -0.26627
B         -4.53490        0.78609       -0.00923
B         -0.10465       -1.58462       -0.80686
B         -1.47453       -2.29101       -0.14117
B         -2.96065       -1.63100       -0.10638
B         -4.45169       -0.84558        0.05893
B         -4.24892       -2.45037        0.66761
B         -2.80990       -3.18962        0.36883
B         -1.43782       -4.04902        0.35533
B         -0.04038       -3.26497       -0.27629
B         -0.14927       -4.78386        0.29697
B          2.25853       -3.19635        0.52370
B          1.33067       -4.33551        0.08581
B          2.60601       -1.47666       -1.11787
B          3.07175       -1.87668        0.60108
B          3.82797       -0.70837       -0.37132
B          1.50581       -3.06700       -1.03698
B          1.14516        2.70899       -0.60057
B         -3.15907        0.02153       -0.60970
B          1.10450       -0.37860       -1.19018
B         -4.44362        2.40955        0.59535
B          4.97713        1.79662        0.74857
B          5.09444        0.11965        0.40222
B          4.54876       -1.30363        1.06509
B          5.60816       -0.64417        1.87322
B          5.63482        0.81884        1.76179
B         -1.50597       -0.66457       -0.61891
B          1.38799       -1.68159        0.09415
B         -0.31158        1.90592       -1.12410
B         -5.53971        1.45685        1.06060
B         -5.70550       -0.08822        1.05637
B         -5.43590       -1.61152        1.10834
B          1.23852       -1.81418       -1.93533
