45
isomer_1786.log	Energy: -113370.8306725
B          2.51886       -1.65805        0.46860
B          2.50195       -3.33008       -0.06726
B          1.14682       -4.14243       -0.15537
B         -0.26014       -3.37495        0.50135
B          1.18016       -0.78241        0.94170
B         -1.64456       -0.78872        0.90769
B         -1.64954       -4.12382       -0.27916
B          3.90824       -0.90056        0.18246
B         -1.66853       -2.48504        0.41003
B          3.80081       -2.48759       -0.27024
B         -0.24401       -4.70638       -0.41375
B         -3.00287       -3.27466       -0.26709
B         -3.04056       -1.67784        0.21766
B         -4.42226       -0.79993       -0.22903
B         -0.24961        1.82174        1.17450
B         -1.63558        2.51346        0.33187
B         -3.05376        1.72322        0.20599
B         -4.43609        0.85538       -0.21261
B         -4.32055        2.47628       -0.76309
B         -2.93940        3.28454       -0.37704
B         -1.55515        4.09576       -0.38392
B         -0.20047        3.39449        0.47250
B         -0.12957        4.66125       -0.48710
B          2.59299        3.25571        0.01203
B          1.24911        4.07742       -0.14042
B          2.61488        1.61961        0.62967
B          3.89694        2.40474       -0.15608
B          3.96729        0.82330        0.24119
B          1.25899        2.53400        0.71302
B          1.19946       -2.54725        0.67552
B         -3.18796        0.02373        0.56664
B          1.22456        0.85643        1.16436
B         -4.36650       -2.45895       -0.65320
B          5.10949       -1.68769       -0.82581
B          5.12676       -0.06015       -0.47322
B          5.19569        1.59751       -0.73770
B          6.16867        0.70633       -1.49744
B          6.13603       -0.80230       -1.53550
B         -1.62939        0.86199        0.84706
B         -0.10315        0.31371        0.05577
B         -0.25911       -1.79096        1.07550
B         -5.47798       -1.54704       -1.14736
B         -5.63950        0.01074       -1.18687
B         -5.42350        1.56111       -1.24396
B         -0.25797       -0.04565        1.70812
