45
isomer_1788.log	Energy: -113373.2360789
B          2.50628       -1.67778        0.49735
B          2.45897       -3.28161       -0.01012
B          1.06260       -4.08102       -0.22410
B         -0.37046       -3.32411        0.30065
B          1.07075       -0.96752        1.36088
B         -1.74209       -0.81728        0.77884
B         -1.74159       -4.12206       -0.34073
B          3.97429       -0.88520        0.18682
B         -1.79544       -2.50290        0.49295
B          3.83062       -2.48423       -0.28611
B         -0.33958       -4.69130       -0.51233
B         -3.11730       -3.27629       -0.26520
B         -3.20641       -1.71275        0.18439
B         -4.62819       -0.82743       -0.12174
B         -0.39497        1.72463        0.95386
B         -1.79045        2.50494        0.48856
B         -3.20192        1.71648        0.17905
B         -4.62543        0.83327       -0.12648
B         -4.45424        2.47326       -0.68463
B         -3.11000        3.27883       -0.27341
B         -1.73270        4.12247       -0.34671
B         -0.36439        3.32556        0.30330
B         -0.32985        4.69001       -0.51466
B          2.46577        3.27942       -0.00146
B          1.07097        4.07939       -0.22030
B          2.50920        1.67433        0.50259
B          3.83531        2.48016       -0.27940
B          3.97584        0.87969        0.18888
B          1.10804        2.51767        0.54117
B          1.10341       -2.51743        0.53397
B         -3.24009        0.00262        0.52484
B          1.07167        0.96521        1.36256
B         -4.46042       -2.46890       -0.67676
B          5.01933       -1.70644       -0.94459
B          5.01326       -0.00250       -0.80496
B          5.02215        1.70164       -0.94015
B          6.08473        0.75059       -1.69434
B          6.08328       -0.75528       -1.69647
B         -1.74062        0.82039        0.78049
B          2.71798       -0.00271        1.02124
B         -0.39720       -1.72216        0.94909
B         -5.57539       -1.54123       -1.17232
B         -5.77003        0.00309       -1.15827
B         -5.57184        1.54693       -1.17768
B          1.71615       -0.00243        2.34142
