45
isomer_1789.log	Energy: -113472.4243753
B         -2.58757       -1.54018       -0.61353
B         -2.56685       -3.11922        0.08354
B         -1.47799       -4.01433        0.80678
B          0.17783       -3.28669       -0.66004
B         -2.53885        0.23407       -0.79437
B          1.69843       -0.80246       -0.80922
B          1.46625       -4.00763        0.32190
B         -3.96359       -0.61433       -0.28028
B          1.58337       -2.43895       -0.34391
B         -3.92103       -2.22713        0.18092
B         -0.03122       -4.46233        0.52411
B          2.86083       -3.28672        0.37146
B          3.10254       -1.73393       -0.19834
B          4.56619       -0.96407        0.11866
B          0.46977        1.73735       -0.95229
B          1.93711        2.48906       -0.48966
B          3.30793        1.62033       -0.26195
B          4.70805        0.70649        0.00128
B          4.60520        2.37582        0.58286
B          3.31661        3.23352        0.15749
B          1.96892        4.11338        0.21273
B          0.52992        3.39158       -0.41681
B          0.58356        4.76973        0.37080
B         -2.27340        3.47392        0.07147
B         -0.84187        4.22375        0.15974
B         -2.41322        1.91117       -0.48440
B         -3.69136        2.75565        0.28503
B         -3.89277        1.13980       -0.26092
B         -0.96688        2.63544       -0.62077
B         -1.25595       -2.38765       -1.03772
B          3.29387       -0.06185       -0.62499
B         -1.02002        0.93977       -1.01826
B          4.26563       -2.52827        0.76467
B         -5.14260       -1.37972        0.75911
B         -5.17893        0.31745        0.43905
B         -4.99693        2.00100        0.78706
B         -6.07426        1.10486        1.50781
B         -6.13059       -0.41064        1.50253
B          1.80574        0.82114       -0.79306
B         -1.25419       -4.02039       -0.74144
B          0.30183       -1.52999       -1.00271
B          5.44780       -1.68396        1.23749
B          5.74786       -0.16887        1.14691
B          5.62546        1.37723        1.12332
B         -1.15063       -0.70320       -1.11206
