45
isomer_1790.log	Energy: -113467.4372532
B         -2.51522        1.67894        0.56209
B         -2.45138        3.32315       -0.08879
B         -1.06305        4.09443       -0.29116
B          0.36359        3.38335        0.34517
B         -1.13514        0.89837        1.02171
B          1.80674        0.87456        0.95590
B          1.74971        4.13306       -0.41087
B         -3.94207        0.94069        0.29031
B          1.80111        2.54571        0.45101
B         -3.78452        2.51978       -0.13378
B          0.35513        4.68703       -0.58445
B          3.11189        3.26924       -0.36673
B          3.18491        1.72610        0.23009
B          4.51590        0.75726       -0.20498
B          0.16622       -1.62601        0.50421
B          1.64019       -2.47205        0.34351
B          3.11286       -1.72116        0.39626
B          4.58217       -0.88816        0.16199
B          4.37363       -2.49675       -0.45576
B          3.00024       -3.32537       -0.07334
B          1.60952       -4.11075       -0.15838
B          0.10793       -3.30275        0.56753
B          0.23510       -4.49999       -0.58686
B         -2.53061       -3.09174       -0.45584
B         -1.18673       -3.83875       -0.51746
B         -2.64653       -1.65665        0.64107
B         -3.89459       -2.25972       -0.37534
B         -3.97690       -0.77845        0.27679
B         -1.38178       -2.73364        1.04353
B         -1.12878        2.61067        0.62837
B          3.27661        0.01889        0.68661
B         -1.28794       -0.72139        0.70483
B          4.45450        2.42226       -0.71695
B         -5.20429        1.74031       -0.51724
B         -5.30117        0.09573       -0.08583
B         -5.25375       -1.49436       -0.63622
B         -6.36820       -0.56617       -1.20397
B         -6.32152        0.91146       -1.12771
B          1.67355       -0.76936        0.74079
B         -1.12080       -2.01647       -0.48346
B          0.36834        1.86049        1.05187
B          5.57193        1.47949       -1.13911
B          5.72703       -0.07409       -1.06666
B          5.44870       -1.57997       -1.01045
B          0.25747        0.05276        1.08770
