45
isomer_1791.log	Energy: -113238.8199073
B         -2.87647       -1.42235       -0.72856
B         -2.81294       -3.01838       -0.02934
B         -1.62442       -3.74398        0.64115
B         -0.04317       -3.26981       -0.60066
B         -1.84056       -0.18206       -0.85253
B          1.51287       -0.82676       -0.94749
B          1.19078       -4.08959        0.41181
B         -3.95669       -0.45416       -0.22169
B          1.46863       -2.57586       -0.38586
B         -4.19684       -2.08396        0.08386
B         -0.31994       -4.48932        0.42111
B          2.62428       -3.38951        0.44490
B          2.87301       -1.84040       -0.13259
B          4.28964       -1.08697        0.31264
B          0.59132        1.86941       -1.20023
B          2.05262        2.50266       -0.60101
B          3.30591        1.55021       -0.34081
B          4.51570        0.55271        0.31268
B          4.64766        2.21486        0.65404
B          3.36559        3.10363        0.25637
B          2.07612        4.08665        0.17600
B          0.66563        3.47798       -0.64084
B          0.73035        4.76325        0.31090
B         -2.11048        3.50200       -0.07129
B         -0.70759        4.25312        0.04700
B         -2.24207        1.75476       -0.46891
B         -3.43294        2.76016        0.28673
B         -3.74326        1.20568       -0.16731
B         -0.84553        2.69757       -0.72651
B         -1.55983       -2.20387       -0.92385
B          3.13576       -0.16463       -0.47209
B         -0.84532        1.00954       -0.97163
B          4.08105       -2.68172        0.84637
B         -5.24933       -1.18196        0.84737
B         -4.92300        0.49034        0.70861
B         -4.78774        2.14951        0.93602
B         -5.92500        1.36006        1.62973
B         -6.08571       -0.15129        1.63907
B          1.81085        0.81504       -1.04129
B         -1.43038       -3.90100       -1.06076
B          0.21781       -1.86682       -1.30458
B          5.23505       -1.86643        1.34818
B          5.64106       -0.34475        1.26163
B          5.69437        1.20337        1.15466
B         -0.16684       -0.48692       -0.84098
