45
isomer_1792.log	Energy: -113420.5623460
B          2.67323       -1.59785        0.71554
B          2.70158       -3.20405        0.06651
B          1.35285       -4.10360       -0.04314
B         -0.12721       -3.42973        0.57615
B          1.21417       -0.78990        1.00045
B         -1.48418       -0.82096        0.13839
B         -1.44830       -4.18124       -0.40814
B          3.97618       -0.70029        0.26415
B         -1.52786       -2.59442        0.16658
B          3.95922       -2.28562       -0.11166
B          0.01084       -4.68916       -0.43217
B         -2.82231       -3.37181       -0.50770
B         -2.93498       -1.73683       -0.07276
B         -4.45018       -1.01535       -0.06404
B         -0.32784        1.68367        0.76413
B         -1.84646        2.43836        0.57847
B         -3.19335        1.54987        0.52280
B         -4.54252        0.67619        0.03198
B         -4.57051        2.38165       -0.33265
B         -3.21627        3.18387        0.02952
B         -1.88586        4.07992       -0.12608
B         -0.41258        3.28978        0.23811
B         -0.49848        4.73009       -0.39963
B          2.38109        3.35350       -0.30143
B          0.94114        4.13993       -0.34311
B          2.50873        1.74491        0.26280
B          3.80505        2.59102       -0.38582
B          3.88303        0.97646       -0.02096
B          1.11050        2.55452        0.36954
B          1.30763       -2.52644        0.65306
B         -3.14974       -0.12123        0.59977
B          1.19138        0.79742        0.69547
B         -4.20345       -2.53573       -0.89303
B          5.35736       -1.45199       -0.44817
B          5.31851        0.20341       -0.10754
B          5.18602        1.80629       -0.75871
B          6.30761        0.88631       -1.24380
B          6.44994       -0.59344       -1.03845
B         -1.68336        0.68782        1.09796
B         -0.17597        0.13907       -0.11029
B         -0.22573       -1.76846        0.92483
B         -5.33873       -1.61583       -1.24958
B         -5.67198       -0.09314       -1.02600
B         -5.61943        1.44935       -0.88039
B         -0.27878       -0.11633        1.60904
