45
isomer_1793.log	Energy: -113670.3223201
B         -2.57773        1.72324        0.48682
B         -2.54871        3.31269       -0.06570
B         -1.18707        4.14193       -0.12145
B          0.25789        3.40492        0.56300
B         -1.16918        0.87726        0.90690
B          1.72735        0.84597        0.75694
B          1.62562        4.17003       -0.24293
B         -4.00272        0.83664        0.24972
B          1.70797        2.54645        0.40235
B         -3.90755        2.47550       -0.27658
B          0.19653        4.73404       -0.35335
B          3.00535        3.35866       -0.25927
B          3.13825        1.75081        0.22884
B          4.56529        0.91462       -0.10345
B          0.39620       -1.79252        1.09437
B          1.82397       -2.51847        0.48741
B          3.20121       -1.67361        0.26925
B          4.55343       -0.77529       -0.23038
B          4.43710       -2.43184       -0.73455
B          3.12230       -3.27050       -0.26281
B          1.78189       -4.14438       -0.23010
B          0.37903       -3.37462        0.50271
B          0.37973       -4.75375       -0.33204
B         -2.42155       -3.35862       -0.05283
B         -1.02165       -4.15975       -0.12609
B         -2.49976       -1.76861        0.44983
B         -3.81214       -2.55326       -0.28797
B         -3.95098       -0.92244        0.22268
B         -1.10377       -2.60286        0.72883
B         -1.20546        2.58946        0.74753
B          3.30972        0.02680        0.63248
B         -1.13497       -0.87858        0.93790
B          4.32642        2.51822       -0.74938
B         -5.16148        1.63125       -0.78283
B         -5.22344       -0.06658       -0.47156
B         -5.07458       -1.75453       -0.83049
B         -6.14182       -0.83732       -1.53226
B         -6.18718        0.67601       -1.50927
B          1.81620       -0.82372        0.91704
B         -2.59232       -0.02585        0.73522
B          0.30673        1.81383        1.08494
B          5.37054        1.58418       -1.31432
B          5.64439        0.05201       -1.27721
B          5.51472       -1.50255       -1.26802
B          0.33621        0.00513        1.01008
