45
isomer_1794.log	Energy: -113443.3040447
B          2.26249        1.82803       -0.35553
B          2.09052        3.42936        0.17835
B          0.76513        4.22763        0.02606
B         -0.58840        3.39755       -0.63126
B          0.99278        0.87966       -1.14698
B         -1.75351        0.73883       -0.82348
B         -2.02137        4.10330       -0.01072
B          3.65460        1.08161        0.09858
B         -1.92769        2.40921       -0.57705
B          3.51771        2.70055        0.45729
B         -0.67760        4.80244        0.12905
B         -3.33297        3.14951        0.02538
B         -3.30178        1.55564       -0.32799
B         -4.61026        0.57113        0.14479
B         -0.17791       -1.63041       -0.94804
B         -1.52545       -2.54677       -0.27534
B         -2.96995       -1.84142       -0.06289
B         -4.46417       -1.09713        0.19581
B         -4.13455       -2.66286        0.89416
B         -2.74679       -3.40878        0.43022
B         -1.30669       -4.17331        0.28454
B         -0.03108       -3.30214       -0.50743
B          0.10923       -4.72638        0.20747
B          2.71102       -3.05076       -0.19151
B          1.44777       -4.02651       -0.12997
B          2.65977       -1.48318       -0.92251
B          4.07694       -2.24032       -0.09636
B          3.84559       -0.59632       -0.17788
B          1.35352       -2.49727       -1.06366
B          0.92063        2.61894       -0.78900
B         -3.20031       -0.18875       -0.54400
B          1.20657       -0.70429       -1.58646
B         -4.58382        2.24998        0.55642
B          4.79852        1.95675        1.06859
B          5.05368        0.30717        0.58071
B          5.23473       -1.39913        0.55401
B          6.10201       -0.46370        1.50166
B          5.87300        1.01900        1.74740
B         -1.63297       -0.85506       -0.66751
B          2.16588        0.07326       -0.10652
B         -0.49020        1.70571       -1.07900
B         -5.60070        1.27560        1.16947
B         -5.62407       -0.26183        1.27030
B         -5.25127       -1.78616        1.40245
B          1.11143       -1.13839        0.09835
