45
isomer_1795.log	Energy: -112488.1490833
B          2.85480        1.79878       -0.39990
B          2.73068        3.44192       -0.02847
B          1.27617        4.23032        0.16763
B         -0.19114        3.44223       -0.39955
B          1.14622        0.87226       -0.82034
B         -1.83811        0.85998       -0.87013
B         -1.57637        4.18521        0.26628
B          4.17203        0.82254       -0.33628
B         -1.65413        2.53612       -0.31698
B          4.16435        2.52011        0.13350
B         -0.15870        4.77967        0.40177
B         -3.02031        3.37973        0.30223
B         -3.15413        1.76187       -0.23983
B         -4.63032        0.96184        0.28418
B         -0.70274       -1.82958       -0.94092
B         -1.98816       -2.47184       -0.24015
B         -3.33805       -1.60352       -0.18241
B         -4.69650       -0.69873        0.31007
B         -4.65150       -2.28766        0.62357
B         -3.33280       -3.22653        0.40891
B         -1.90568       -4.11263        0.37407
B         -0.45336       -3.49174       -0.35148
B         -0.43471       -4.78297        0.45457
B          2.54623       -3.54365       -0.03481
B          1.09772       -4.35370        0.20708
B          2.69352       -1.81739       -0.42442
B          3.99350       -2.61449        0.12277
B          4.11113       -0.97072       -0.32862
B          1.22204       -2.83697       -0.57482
B          1.29324        2.66508       -0.59367
B         -3.34326        0.14906       -0.61394
B          1.29211       -0.63414       -0.73984
B         -4.44214        2.57241        0.54304
B          5.39047        1.65643        0.63373
B          5.32751       -0.00971        0.39961
B          5.25478       -1.79072        0.63326
B          6.36565       -0.85355        1.22122
B          6.46654        0.63329        1.24206
B         -1.95815       -0.86408       -0.84398
B          1.76480        0.88753        0.12563
B         -0.27453        1.79745       -0.95363
B         -5.81933        1.76433        0.75193
B         -6.05155        0.19067        0.82312
B         -5.95903       -1.43214        0.85622
B          0.41116       -1.68238       -1.05229
