45
isomer_1796.log	Energy: -112566.7837538
B         -2.58332       -1.68573       -0.45163
B         -2.56995       -3.33582       -0.07821
B         -1.15950       -4.17220        0.16387
B          0.29704       -3.33608       -0.38105
B         -1.12402       -0.77809       -0.76229
B          1.75802       -0.81968       -0.84495
B          1.68705       -4.11322        0.30807
B         -4.03353       -0.80909       -0.38806
B          1.68569       -2.43356       -0.28091
B         -3.97234       -2.49960        0.06913
B          0.26596       -4.77338        0.44185
B          3.11422       -3.25974        0.32524
B          3.14294       -1.63785       -0.24052
B          4.59836       -0.81411        0.25235
B          0.32050        1.73797       -0.91627
B          1.70138        2.44069       -0.28949
B          3.15422        1.63615       -0.24870
B          4.60216        0.80749        0.24642
B          4.44840        2.36987        0.49565
B          3.13786        3.25735        0.31508
B          1.71897        4.11810        0.29904
B          0.32346        3.35098       -0.38703
B          0.30546        4.78862        0.43355
B         -2.53947        3.38309       -0.08036
B         -1.12317        4.19705        0.15938
B         -2.57462        1.74234       -0.45468
B         -3.95944        2.56728        0.06888
B         -4.02943        0.88425       -0.38808
B         -1.13180        2.56769       -0.61824
B         -1.15413       -2.54296       -0.62124
B          3.23231       -0.09685       -0.64033
B         -1.11355        0.82266       -0.77066
B          4.43561       -2.37951        0.50414
B         -5.28891       -1.68707        0.56739
B         -5.27903       -0.05141        0.33257
B         -5.27535        1.76902        0.56438
B         -6.43739        0.81895        1.15954
B         -6.44803       -0.72316        1.16288
B          1.76344        0.83119       -0.84772
B         -1.24862        1.11264        0.27241
B          0.31235       -1.71735       -0.90859
B          5.92324       -1.65213        0.70975
B          6.11810        0.04705        0.76938
B          5.92840        1.75273        0.77278
B         -0.92956       -1.68456        0.20532
