45
isomer_1797.log	Energy: -111643.7736608
B         -2.57560        1.78681        0.44100
B         -2.55491        3.42885        0.07923
B         -1.14203        4.25083       -0.15516
B          0.30864        3.40137        0.38482
B         -1.12288        0.88044        0.73590
B          1.75203        0.88709        0.81985
B          1.70452        4.18388       -0.29602
B         -4.04092        0.92472        0.35854
B          1.68477        2.49814        0.27724
B         -3.96866        2.62120       -0.07934
B          0.28470        4.85984       -0.42717
B          3.12991        3.32621       -0.32076
B          3.14433        1.69839        0.22753
B          4.59754        0.88010       -0.27910
B          0.29836       -1.65871        0.85863
B          1.67525       -2.35728        0.22387
B          3.13793       -1.56236        0.19168
B          4.59436       -0.73884       -0.29690
B          4.42359       -2.29336       -0.55913
B          3.11716       -3.17767       -0.39225
B          1.68841       -4.03007       -0.38631
B          0.29559       -3.25725        0.31162
B          0.26596       -4.69741       -0.53223
B         -2.56803       -3.26678        0.00563
B         -1.15838       -4.08894       -0.24683
B         -2.58231       -1.63302        0.40340
B         -3.97860       -2.45031       -0.13509
B         -4.04423       -0.76359        0.33998
B         -1.15371       -2.46184        0.55614
B         -1.14377        2.60646        0.61185
B          3.22488        0.16349        0.60726
B         -1.12605       -0.73906        0.71809
B          4.43287        2.44068       -0.50709
B         -5.29479        1.82464       -0.59142
B         -5.29498        0.19099       -0.37544
B         -5.30157       -1.63749       -0.62947
B         -6.46536       -0.67384       -1.22046
B         -6.46232        0.87879       -1.20340
B          1.74880       -0.75883        0.80176
B         -1.88895       -0.96027       -0.16115
B          0.30512        1.79119        0.89655
B          5.93995        1.72909       -0.72997
B          6.13161        0.01628       -0.81392
B          5.93044       -1.71314       -0.83841
B          0.05133       -2.34940        1.32644
