45
isomer_1798.log	Energy: -113414.7574705
B         -2.67556       -1.81346       -0.54715
B         -2.50322       -3.31947        0.03654
B         -1.12283       -3.98965        0.23025
B          0.26181       -3.32705       -0.44766
B         -1.89141       -0.42930       -0.72234
B          1.59701       -0.68879       -1.03855
B          1.67452       -4.02516        0.34278
B         -3.91158       -0.95093       -0.15778
B          1.76046       -2.48482       -0.51028
B         -3.89347       -2.59451        0.26606
B          0.25679       -4.56626        0.54758
B          3.03980       -3.22893        0.21309
B          3.14174       -1.66026       -0.35064
B          4.55274       -0.81130       -0.12997
B          0.35831        1.86899       -1.32217
B          1.49258        2.27770       -0.08106
B          3.02060        1.68697       -0.19459
B          4.42434        0.80986        0.24636
B          4.20611        2.40340        0.91579
B          2.81165        3.10213        0.65741
B          1.47433        3.97296        0.56139
B          0.25210        3.39071       -0.48813
B          0.11044        4.63948        0.48450
B         -2.55248        3.19293       -0.18285
B         -1.24859        4.03805        0.03548
B         -2.47859        1.45674       -0.49906
B         -3.84777        2.34693        0.04415
B         -3.88974        0.74765       -0.23525
B         -1.20348        2.55852       -0.90304
B         -1.10288       -2.22642       -0.53442
B          3.22794        0.03885       -0.70659
B         -1.00804        0.88479       -1.03868
B          4.42767       -2.42684        0.53903
B         -5.16591       -1.71857        0.80381
B         -5.12965       -0.07341        0.43840
B         -5.19468        1.61841        0.60782
B         -6.26528        0.76220        1.26398
B         -6.22635       -0.75611        1.40996
B          1.82766        0.93744       -1.31607
B         -0.24005       -0.60705       -0.34988
B          0.40004       -1.84443       -1.18622
B          5.48801       -1.49711        1.01782
B          5.68394        0.03714        1.08896
B          5.44361        1.55098        1.21954
B          0.61738        0.71699       -0.02831
