45
isomer_1799.log	Energy: -113434.6432638
B         -2.55111       -1.70867       -0.46709
B         -2.69685       -3.28756        0.59054
B         -1.34841       -4.12706        0.52442
B         -0.03975       -3.20629       -0.55035
B         -1.98576       -0.12939       -0.59774
B          1.68159       -0.76382       -0.87771
B          1.40131       -4.01743        0.11942
B         -3.79118       -0.76165       -0.07336
B          1.67336       -2.56495       -0.77816
B         -3.88016       -2.24008        0.60320
B          0.08738       -4.55234        0.41555
B          2.86855       -3.31922        0.11931
B          3.03030       -1.76737       -0.28760
B          4.41699       -0.92700        0.28167
B          0.45108        1.85407       -1.11098
B          1.85105        2.53476       -0.53686
B          3.21002        1.63839       -0.19671
B          4.58922        0.71471        0.16570
B          4.38085        2.34647        0.82271
B          3.16855        3.23833        0.29229
B          1.82825        4.16168        0.28300
B          0.47398        3.45340       -0.49332
B          0.48384        4.80441        0.38141
B         -2.25947        3.38607        0.08011
B         -0.94379        4.23951        0.12382
B         -2.30268        1.68364       -0.48063
B         -3.63396        2.62482        0.20917
B         -3.68131        0.96002       -0.05959
B         -1.02693        2.70848       -0.76176
B         -1.01388       -1.71675       -0.96868
B          3.24558       -0.05141       -0.61975
B         -1.03744        0.99911       -1.25980
B          4.23193       -2.59711        0.67015
B         -5.22295       -1.41608        0.78479
B         -5.08179        0.22492        0.36811
B         -4.94120        1.90409        0.72037
B         -6.10843        1.05205        1.29991
B         -6.31081       -0.43167        1.22111
B          1.75533        0.81582       -0.74360
B         -1.77361       -3.15156       -0.70829
B          0.50686       -1.73982       -1.46097
B          5.36496       -1.79179        1.24635
B          5.54524       -0.21921        1.36688
B          5.32943        1.32026        1.46095
B          0.05577       -0.17677       -1.11798
