45
isomer_0018.log	Energy: -113510.9142260
B          2.53365        1.62334       -0.47845
B          2.52363        3.32795       -0.18984
B          1.18336        4.10846        0.02881
B         -0.32588        3.34668       -0.40583
B          1.00939        0.80130       -0.72157
B         -1.76553        0.83813       -0.81930
B         -1.63818        4.09090        0.40105
B          3.96149        0.82964       -0.55221
B         -1.73756        2.45687       -0.21698
B          3.89824        2.47979       -0.05388
B         -0.22761        4.69340        0.41885
B         -3.05721        3.26664        0.41170
B         -3.20376        1.75629       -0.19210
B         -4.56925        0.83400        0.23305
B         -0.41680       -1.59828       -0.96336
B         -1.87390       -2.42723       -0.55480
B         -3.33074       -1.65803       -0.44752
B         -4.74322       -0.78017       -0.15965
B         -4.60372       -2.40766        0.43661
B         -3.22794       -3.22453        0.05917
B         -1.84739       -4.00866        0.20084
B         -0.40469       -3.28771       -0.50299
B         -0.43924       -4.50657        0.54597
B          2.34100       -3.03975        0.29888
B          0.92705       -3.86245        0.38230
B          2.56187       -1.73936       -0.90622
B          3.84507       -2.63867        0.24983
B          3.98177       -0.91902       -0.62814
B          1.05874       -2.45553       -0.68108
B          1.14179        2.54501       -0.70303
B         -3.32901        0.06306       -0.64422
B          1.03001       -0.79315       -0.96525
B         -4.46805        2.47485        0.72291
B          5.14906        1.66873        0.48378
B          5.22071       -0.04572        0.17592
B          4.84836       -1.63011        0.84258
B          5.90893       -0.65052        1.51222
B          6.13974        0.78714        1.24484
B         -1.80969       -0.75529       -0.80139
B          2.95549       -1.34473        0.82930
B         -0.36551        1.67570       -0.86257
B         -5.67898        1.59341        1.07783
B         -5.89682        0.05863        0.99929
B         -5.66803       -1.47209        0.96727
B          2.40938       -0.07467       -0.07263
