45
isomer_0180.log	Energy: -113411.4324629
B         -2.47037       -1.50851       -0.47436
B         -2.44395       -3.18853        0.20182
B         -1.25325       -4.04969        0.83601
B          0.17061       -3.27907       -0.62296
B         -1.23644       -0.71025       -1.15472
B          1.71890       -0.76915       -1.04265
B          1.54520       -4.05514        0.19849
B         -3.77327       -0.70450        0.00547
B          1.65013       -2.47689       -0.63856
B         -3.71715       -2.27325        0.38930
B          0.10083       -4.60726        0.37678
B          2.87707       -3.24842        0.26231
B          3.06233       -1.68325       -0.28112
B          4.33523       -0.80484        0.39143
B          0.32745        1.88439       -1.07074
B          1.76022        2.60484       -0.55899
B          3.10786        1.75941       -0.17587
B          4.52826        0.83900        0.14315
B          4.31307        2.48580        0.77938
B          3.05520        3.35908        0.28072
B          1.70141        4.21949        0.25600
B          0.33039        3.45174       -0.50386
B          0.30424        4.82046        0.33974
B         -2.46104        3.46997       -0.03428
B         -1.10886        4.25746        0.05672
B         -2.51547        1.77430       -0.65240
B         -3.75441        2.64448        0.19349
B         -3.81026        1.02054       -0.08390
B         -1.15560        2.64210       -0.69945
B         -1.26346       -2.42755       -1.10411
B          3.22449        0.02054       -0.57497
B         -1.20214        0.95788       -1.19325
B          4.24112       -2.47001        0.75800
B         -5.03637       -1.44969        0.92363
B         -5.11408        0.17342        0.41740
B         -5.05475        1.83592        0.76255
B         -6.07514        0.94716        1.50045
B         -6.09291       -0.55205        1.54170
B          1.71652        0.88547       -0.76154
B         -1.27023       -4.04721       -0.74040
B          0.26034        0.10141       -1.11269
B          5.34306       -1.60493        1.33339
B          5.52638       -0.04781        1.36786
B          5.30205        1.48651        1.37824
B          0.30680       -1.68338       -1.21320
