45
isomer_1806.log	Energy: -109934.2162861
B          2.54024        1.83494       -0.45443
B          2.50192        3.46688       -0.05085
B          1.08048        4.26636        0.20830
B         -0.36205        3.41433       -0.34918
B          1.09705        0.91976       -0.76836
B         -1.77798        0.89555       -0.84423
B         -1.76468        4.16317        0.35523
B          4.01554        0.98790       -0.39801
B         -1.72745        2.49293       -0.26090
B          3.92526        2.67174        0.08320
B         -0.35227        4.85182        0.49967
B         -3.18012        3.28885        0.36199
B         -3.17764        1.67546       -0.22759
B         -4.61988        0.82792        0.26199
B         -0.29550       -1.63159       -0.95191
B         -1.66240       -2.36185       -0.33140
B         -3.13395       -1.58485       -0.27494
B         -4.59819       -0.79081        0.23848
B         -4.40890       -2.34945        0.46051
B         -3.09299       -3.21416        0.26755
B         -1.65464       -4.04969        0.23596
B         -0.27284       -3.24340       -0.44586
B         -0.22423       -4.70416        0.36090
B          2.59162       -3.22786       -0.14807
B          1.19221       -4.07231        0.08721
B          2.58606       -1.58444       -0.50408
B          3.99321       -2.39910        0.00956
B          4.03816       -0.70018       -0.42252
B          1.16654       -2.42544       -0.67398
B          1.09864        2.64218       -0.60039
B         -3.24184        0.14991       -0.64613
B          1.11875       -0.69952       -0.79187
B         -4.47232        2.38396        0.52925
B          5.26194        1.87766        0.57115
B          5.28010        0.25016        0.31358
B          5.30832       -1.58400        0.52088
B          6.46283       -0.62243        1.13307
B          6.44203        0.92999        1.15561
B         -1.75593       -0.75015       -0.86813
B          1.40226       -2.37787        1.76271
B         -0.34171        1.81786       -0.90182
B         -5.97051        1.64968        0.73804
B         -6.14237       -0.06679        0.77880
B         -5.92142       -1.79386        0.75863
B          1.04862       -1.22513       -0.77765
