45
isomer_1808.log	Energy: -113441.9658657
B          2.47321       -1.74168        0.39402
B          2.65839       -3.19434       -0.79769
B          1.38060       -4.10355       -0.81262
B          0.07353       -3.24233        0.39290
B          1.28377       -0.63333        1.02395
B         -1.68448       -0.78756        1.00664
B         -1.38424       -3.97940       -0.24393
B          3.68489       -0.64764       -0.00600
B         -1.55471       -2.48716        0.56650
B          3.73616       -2.13736       -0.65232
B         -0.05432       -4.49960       -0.66359
B         -2.83247       -3.27104       -0.16855
B         -3.02668       -1.74202        0.31740
B         -4.41294       -0.90446       -0.21298
B         -0.39783        1.88240        0.97171
B         -1.84520        2.55177        0.45621
B         -3.21248        1.68075        0.16170
B         -4.64417        0.73095        0.04714
B         -4.49643        2.36495       -0.69204
B         -3.19027        3.24817       -0.35394
B         -1.82975        4.13225       -0.42421
B         -0.43811        3.42756        0.33853
B         -0.45017        4.75257       -0.56183
B          2.37769        3.45119       -0.10853
B          0.98385        4.21737       -0.27773
B          2.45313        1.82254        0.47021
B          3.80089        2.68921       -0.15589
B          3.73098        1.01590       -0.01162
B          1.09114        2.68689        0.57411
B          1.81759       -3.42162        0.59043
B         -3.25563       -0.02569        0.65398
B          1.14862        0.95900        1.03556
B         -4.26840       -2.56124       -0.59583
B          5.16296       -1.31909       -0.68481
B          5.17700        0.23419       -0.08082
B          5.13004        1.93230       -0.50890
B          6.24557        1.00596       -1.06404
B          6.36862       -0.47591       -1.00366
B         -1.77493        0.86268        0.72477
B          1.16818       -2.28515        1.41957
B         -0.27870       -1.65383        1.30398
B         -5.44902       -1.75226       -1.08244
B         -5.69698       -0.20925       -1.10465
B         -5.51940        1.33139       -1.14667
B         -0.24948        0.09553        0.96598
