45
isomer_1809.log	Energy: -113344.2895722
B          2.94166       -1.67958        0.46359
B          2.89191       -3.28113        0.03123
B          1.44106       -3.97566       -0.15523
B         -0.02040       -3.28363        0.44730
B          2.02940       -0.41184        0.61986
B         -1.75333       -0.88670        0.86512
B         -1.37486       -4.11096       -0.42673
B          4.07517       -0.70877        0.24872
B         -1.59816       -2.56326        0.28963
B          4.29559       -2.37721       -0.14468
B          0.03920       -4.61302       -0.50139
B         -2.86349       -3.35927       -0.46043
B         -3.05566       -1.79790        0.05502
B         -4.49325       -0.99501       -0.39553
B         -0.41197        1.74316        0.89637
B         -1.88056        2.46565        0.34750
B         -3.24671        1.59150        0.22087
B         -4.60579        0.68029       -0.19983
B         -4.71308        2.32576       -0.54478
B         -3.28632        3.19971       -0.23300
B         -1.91792        4.12481       -0.24245
B         -0.48413        3.38169        0.44770
B         -0.49943        4.74692       -0.38567
B          2.34535        3.45003       -0.08666
B          0.92826        4.23856       -0.14710
B          2.40528        1.76811        0.37672
B          3.68059        2.61725       -0.26795
B          3.89452        1.01767        0.16571
B          1.02914        2.61053        0.58625
B          1.53713       -2.48731        0.69754
B         -3.28188       -0.14002        0.47163
B          1.09839        0.88194        0.77934
B         -4.32923       -2.67620       -0.76192
B          5.43026       -1.45866       -0.75177
B          5.17269        0.23039       -0.50086
B          5.02112        1.87726       -0.78707
B          6.16857        1.05331       -1.45402
B          6.33270       -0.43733       -1.43541
B         -1.81973        0.75666        0.77678
B          0.94832       -1.06761        1.62411
B         -0.38940       -1.77467        1.13851
B         -5.59950       -1.82068       -1.08169
B         -5.88469       -0.25371       -1.02799
B         -5.79766        1.34043       -0.96747
B         -0.39915        0.05848        1.41014
