45
isomer_0181.log	Energy: -113510.9147814
B          2.53388        1.62301       -0.47876
B          2.52402        3.32768       -0.19046
B          1.18370        4.10820        0.02867
B         -0.32542        3.34650       -0.40575
B          1.00943        0.80132       -0.72194
B         -1.76526        0.83824       -0.81929
B         -1.63775        4.09101        0.40090
B          3.96145        0.82911       -0.55261
B         -1.73718        2.45693       -0.21652
B          3.89836        2.47962       -0.05449
B         -0.22708        4.69313        0.41919
B         -3.05684        3.26659        0.41227
B         -3.20330        1.75629       -0.19174
B         -4.56924        0.83439        0.23322
B         -0.41692       -1.59813       -0.96364
B         -1.87411       -2.42719       -0.55543
B         -3.33072       -1.65776       -0.44714
B         -4.74325       -0.77976       -0.15982
B         -4.60388       -2.40746        0.43657
B         -3.22836       -3.22449        0.05849
B         -1.84769       -4.00848        0.20074
B         -0.40492       -3.28749       -0.50271
B         -0.43959       -4.50643        0.54610
B          2.34050       -3.03943        0.29964
B          0.92679       -3.86229        0.38263
B          2.56184       -1.73956       -0.90631
B          3.84473       -2.63862        0.24984
B          3.98180       -0.91939       -0.62814
B          1.05865       -2.45549       -0.68091
B          1.14215        2.54489       -0.70358
B         -3.32898        0.06345       -0.64402
B          1.03016       -0.79317       -0.96579
B         -4.46782        2.47502        0.72326
B          5.14875        1.66843        0.48371
B          5.22043       -0.04582        0.17637
B          4.84823       -1.63038        0.84284
B          5.90860       -0.65077        1.51258
B          6.13911        0.78707        1.24559
B         -1.80969       -0.75520       -0.80130
B          2.95534       -1.34488        0.82948
B         -0.36534        1.67567       -0.86271
B         -5.67876        1.59363        1.07818
B         -5.89664        0.05884        0.99945
B         -5.66861       -1.47189        0.96631
B          2.40939       -0.07494       -0.07298
