45
isomer_1810.log	Energy: -113523.3485646
B          2.44034       -1.83040        0.64434
B          2.20617       -3.06340       -0.49529
B          0.83547       -3.77907       -0.64628
B         -0.33316       -3.35987        0.63056
B          1.04599       -0.84196        0.80918
B         -1.78928       -0.76493        0.74208
B         -1.96878       -4.06168       -0.18054
B          3.93795       -0.95048        0.31399
B         -1.81268       -2.48696        0.37567
B          3.68804       -2.39874       -0.45038
B         -0.60790       -4.33031       -0.69934
B         -3.26493       -3.20054       -0.08846
B         -3.23140       -1.59198        0.34118
B         -4.62185       -0.65142       -0.00485
B         -0.28752        1.66466        0.75222
B         -1.66100        2.49828        0.25302
B         -3.15283        1.80219        0.20290
B         -4.64220        1.01500        0.17655
B         -4.40262        2.64597       -0.56973
B         -3.01368        3.38019       -0.30373
B         -1.57324        4.14155       -0.42700
B         -0.22273        3.34754        0.25320
B         -0.13894        4.69333       -0.56608
B          2.63762        3.28053        0.05296
B          1.25184        4.08578       -0.20786
B          2.63067        1.68173        0.60209
B          4.00759        2.46400       -0.01524
B          4.03858        0.79624        0.47843
B          1.22007        2.49602        0.54035
B          1.13685       -2.76176        1.12724
B         -3.26200        0.13479        0.66859
B          1.14041        0.81724        0.88294
B         -4.59549       -2.28921       -0.47551
B          5.05557       -1.70012       -0.75491
B          5.33093       -0.08174       -0.17263
B          5.29249        1.63030       -0.43523
B          6.32952        0.70911       -1.15804
B          6.20622       -0.77376       -1.33145
B         -1.66477        0.84131        0.58210
B          0.72800       -2.08090       -0.42715
B         -0.39191       -1.62701        0.87489
B         -5.72721       -1.37325       -0.88483
B         -5.84820        0.20469       -0.87896
B         -5.53615        1.69845       -0.97797
B          2.59015       -0.02941        0.84694
