45
isomer_1811.log	Energy: -113425.8040079
B         -2.51939        1.71236        0.61697
B         -2.46267        3.40085       -0.03063
B         -1.10666        4.16305       -0.08301
B          0.33084        3.44260        0.59618
B         -1.19653        0.95122        1.12333
B          1.66591        0.84677        0.78944
B          1.72197        4.14940       -0.22722
B         -3.86481        0.95299        0.12906
B          1.72633        2.51926        0.45333
B         -3.73931        2.54777       -0.27650
B          0.31233        4.72634       -0.35589
B          3.06277        3.28706       -0.24781
B          3.10192        1.69591        0.22726
B          4.46512        0.76617       -0.22379
B          0.26137       -1.81525        1.56317
B          1.42191       -2.41180        0.13102
B          2.99276       -1.73808        0.10826
B          4.45231       -0.90415       -0.18336
B          4.20501       -2.52667       -0.78956
B          2.82158       -3.27916       -0.42474
B          1.45517       -4.12273       -0.28515
B          0.16952       -3.35115        0.67235
B          0.06819       -4.70332       -0.24857
B         -2.61846       -3.27571        0.08065
B         -1.30753       -4.09441        0.04494
B         -2.61173       -1.58322        0.53413
B         -3.87875       -2.40109       -0.20655
B         -3.92110       -0.78503        0.13360
B         -1.23744       -2.46006        0.79737
B         -1.16360        2.59464        0.71011
B          3.15238       -0.04503        0.49145
B         -1.24518       -0.72686        0.95410
B          4.39441        2.42462       -0.68457
B         -5.03098        1.74887       -0.85837
B         -5.11608        0.11112       -0.50728
B         -5.15915       -1.54460       -0.82126
B         -6.14253       -0.63087       -1.55720
B         -6.07589        0.86696       -1.59469
B          1.55506       -0.83798        0.65109
B          0.22200       -0.00534        1.36028
B          0.33292        1.83296        1.16091
B          5.48415        1.48953       -1.18592
B          5.61848       -0.09460       -1.21409
B          5.36909       -1.62742       -1.25536
B          0.03428       -1.26593       -0.06748
