45
isomer_1812.log	Energy: -113441.8327471
B          2.46232       -1.74592        0.39240
B          2.63114       -3.19189       -0.81251
B          1.35071       -4.09671       -0.82784
B          0.05558       -3.24156        0.38929
B          1.27691       -0.64019        1.02742
B         -1.69129       -0.78008        1.01275
B         -1.40862       -3.97123       -0.24324
B          3.69018       -0.66260        0.00637
B         -1.57071       -2.48096        0.57218
B          3.71381       -2.13892       -0.66877
B         -0.08331       -4.49284       -0.67347
B         -2.85302       -3.25827       -0.15853
B         -3.03961       -1.72822        0.32951
B         -4.42042       -0.88490       -0.20414
B         -0.38888        1.88329        0.97127
B         -1.83033        2.55524        0.43966
B         -3.20460        1.69399        0.16148
B         -4.64141        0.75285        0.04380
B         -4.48108        2.38078       -0.70350
B         -3.16964        3.25710       -0.37130
B         -1.80181        4.13051       -0.44934
B         -0.41745        3.42083        0.31909
B         -0.41691        4.73974       -0.58826
B          2.40276        3.43481       -0.09111
B          1.01375        4.20034       -0.28631
B          2.46980        1.80538        0.49906
B          3.82449        2.67312       -0.11666
B          3.75649        1.00319        0.03949
B          1.10736        2.67698        0.57958
B          1.79958       -3.42564        0.57854
B         -3.25890       -0.00974        0.66059
B          1.15168        0.95319        1.04680
B         -4.28569       -2.54277       -0.58454
B          5.14691       -1.33413       -0.71694
B          5.18856        0.20562       -0.08335
B          5.15028        1.91245       -0.47980
B          6.24503        0.98723       -1.07331
B          6.35267       -0.49651       -1.04806
B         -1.77147        0.87157        0.73774
B         -0.25154        0.09486        0.97811
B         -0.28744       -1.65518        1.30658
B         -5.46118       -1.72925       -1.07312
B         -5.69913       -0.18499       -1.10291
B         -5.51246        1.35313       -1.15331
B          1.15689       -2.29369        1.41860
