45
isomer_1813.log	Energy: -112381.4336313
B          2.63095       -1.63750        0.34187
B          2.62258       -3.26560       -0.07861
B          1.21586       -4.08962       -0.34120
B         -0.24076       -3.27141        0.23014
B          1.17156       -0.75364        0.67033
B         -1.70311       -0.78570        0.75638
B         -1.63128       -4.03982       -0.47721
B          4.08945       -0.76162        0.28921
B         -1.62396       -2.37565        0.15621
B          4.02985       -2.44180       -0.20925
B         -0.20641       -4.69956       -0.63372
B         -3.06330       -3.19294       -0.46995
B         -3.08973       -1.58602        0.13645
B         -4.54980       -0.76141       -0.33925
B         -0.26917        1.76832        0.88535
B         -1.65214        2.47849        0.27723
B         -3.10865        1.67386        0.21773
B         -4.55920        0.85710       -0.29890
B         -4.40077        2.42132       -0.50528
B         -3.10105        3.30921       -0.30784
B         -1.67895        4.17195       -0.27248
B         -0.27940        3.38544        0.39610
B         -0.26188        4.85516       -0.39551
B          2.58372        3.42825        0.08827
B          1.16746        4.24794       -0.13333
B          2.61110        1.78142        0.42711
B          4.00042        2.62837       -0.08285
B          4.07965        0.92624        0.33129
B          1.17629        2.59307        0.61069
B          1.20570       -2.47388        0.48437
B         -3.18176       -0.06641        0.57114
B          1.16216        0.86542        0.71070
B         -4.37329       -2.31146       -0.62327
B          5.34919       -1.61706       -0.69349
B          5.33696        0.00773       -0.41899
B          5.32910        1.84414       -0.60720
B          6.49967        0.91143       -1.23338
B          6.50868       -0.64079       -1.27208
B         -1.71266        0.85979        0.79740
B          0.08815       -2.28062        2.47561
B         -0.24915       -1.68067        0.79936
B         -5.88609       -1.60409       -0.81920
B         -6.09112        0.10908       -0.84143
B         -5.90339        1.83978       -0.80397
B         -0.04148       -0.62624        0.20548
