45
isomer_1814.log	Energy: -112993.1435784
B         -2.75332       -1.48063       -0.43931
B         -2.68661       -3.28304        0.00062
B         -1.30626       -4.38277        0.37650
B          0.57950       -3.41470       -0.25769
B         -1.33604       -0.57146       -0.74332
B          1.83802       -0.71672       -0.80620
B          1.89117       -4.13294        0.42953
B         -4.08125       -0.71903       -0.34599
B          1.94186       -2.49051       -0.16244
B         -3.99171       -2.36781        0.10799
B          0.32721       -4.78805        0.56430
B          3.28227       -3.22154        0.43490
B          3.27866       -1.59799       -0.15191
B          4.63699       -0.64855        0.29263
B          0.19232        1.78304       -0.92469
B          1.57886        2.53948       -0.26815
B          3.07101        1.78871       -0.21758
B          4.55471        0.99670        0.26739
B          4.35705        2.60939        0.57978
B          2.93845        3.35337        0.36254
B          1.50543        4.15952        0.34896
B          0.15055        3.39782       -0.35053
B          0.11179        4.72355        0.47459
B         -2.66328        3.33800       -0.00678
B         -1.28759        4.13373        0.21260
B         -2.69639        1.71447       -0.42366
B         -4.04644        2.49744        0.15884
B         -4.10318        0.92187       -0.32841
B         -1.32886        2.56426       -0.57978
B         -1.43887       -2.31283       -0.59999
B          3.26601        0.08265       -0.59725
B         -1.26546        0.84786       -0.76194
B          4.68441       -2.27431        0.64010
B         -5.28310       -1.62721        0.64997
B         -5.29277        0.01922        0.41525
B         -5.30176        1.71960        0.65118
B         -6.39023        0.79016        1.25616
B         -6.39950       -0.70880        1.28513
B          1.71120        0.99712       -0.85142
B         -0.53680       -3.26619       -0.69004
B          0.35564       -1.66436       -0.90606
B          5.90644       -1.34270        0.78121
B          5.97257        0.29107        0.79281
B          5.72705        1.81567        0.79425
B          0.33027       -0.07255       -1.46408
