45
isomer_1815.log	Energy: -113473.6212103
B         -2.60898        1.57223        0.74604
B         -2.61129        3.26825       -0.03798
B         -1.27596        4.06893       -0.25895
B          0.20786        3.37486        0.29503
B         -1.19933        0.86740        1.09246
B          1.71095        0.92082        0.79686
B          1.55905        4.16565       -0.47415
B         -4.01037        0.85198        0.43542
B          1.66223        2.57659        0.39046
B         -3.89010        2.40906       -0.04443
B          0.13543        4.68011       -0.61314
B          2.96888        3.36213       -0.41533
B          3.10617        1.83711        0.20438
B          4.54871        0.93173       -0.00660
B          0.27085       -1.58803        0.50064
B          1.73839       -2.45501        0.48246
B          3.14252       -1.65568        0.47652
B          4.37732       -0.70984       -0.22122
B          4.48063       -2.38689       -0.41276
B          3.09592       -3.23815       -0.08119
B          1.76961       -4.09547       -0.15163
B          0.22549       -3.30639        0.54396
B          0.43354       -4.51262       -0.60125
B         -2.35012       -3.10787       -0.51993
B         -0.98078       -3.85329       -0.58607
B         -2.49847       -1.73413        0.56003
B         -3.74220       -2.33752       -0.47283
B         -3.89997       -0.88291        0.23738
B         -1.25747       -2.75837        1.02089
B         -1.24983        2.47939        0.46008
B          3.21154        0.12175        0.61007
B         -1.21207       -0.75981        0.73479
B          4.34670        2.56467       -0.70188
B         -5.28213        1.62276       -0.41436
B         -5.29197       -0.03732       -0.08361
B         -5.13202       -1.59330       -0.73165
B         -6.25795       -0.68765       -1.26984
B         -6.34093        0.77484       -1.10102
B          1.72795       -0.74465        1.06357
B          0.27384        0.02392        1.25259
B          0.26847        1.80759        0.87296
B          5.47194        1.60410       -1.12190
B          5.73112        0.08708       -1.00182
B          5.59727       -1.49445       -0.89499
B         -0.97047       -2.03361       -0.55805
