45
isomer_1816.log	Energy: -112802.2601045
B         -2.57572       -1.66112       -0.41346
B         -2.57472       -3.29811       -0.02896
B         -1.17159       -4.13519        0.21051
B          0.28749       -3.31235       -0.34775
B         -1.11270       -0.77802       -0.72747
B          1.76145       -0.82347       -0.82424
B          1.67622       -4.10355        0.33765
B         -4.02928       -0.77886       -0.33644
B          1.67575       -2.42582       -0.25894
B         -3.97707       -2.46991        0.12470
B          0.24835       -4.75899        0.48457
B          3.11276       -3.26436        0.34404
B          3.14582       -1.64462       -0.22693
B          4.61191       -0.83848        0.26172
B          0.34090        1.74037       -0.89194
B          1.72972        2.42959       -0.27316
B          3.18206        1.61611       -0.23647
B          4.62991        0.78045        0.25698
B          4.48062        2.34057        0.49830
B          3.18506        3.23950        0.32499
B          1.76752        4.11037        0.31360
B          0.36151        3.34624       -0.36724
B          0.35458        4.79823        0.45659
B         -2.50029        3.39749       -0.04856
B         -1.07889        4.20456        0.18610
B         -2.53770        1.75870       -0.42347
B         -3.92070        2.60158        0.10985
B         -4.01051        0.90944       -0.34139
B         -1.09915        2.56655       -0.59415
B         -1.15549       -2.50173       -0.57931
B          3.24458       -0.11632       -0.62836
B         -1.09469        0.84147       -0.73222
B          4.42800       -2.39345        0.51216
B         -5.29031       -1.64903        0.63158
B         -5.27023       -0.01868        0.39287
B         -5.25182        1.81308        0.62144
B         -6.42529        0.87304        1.23102
B         -6.44255       -0.67958        1.23556
B          1.77975        0.82245       -0.82905
B         -2.81252       -0.52345       -0.68815
B          0.30255       -1.70953       -0.88184
B          5.94525       -1.69863        0.71834
B          6.15959        0.01252        0.77756
B          5.98108        1.74460        0.77887
B         -0.06123       -0.36367       -0.12948
