45
isomer_1817.log	Energy: -112330.9556131
B         -2.61054        1.74056        0.39072
B         -2.59419        3.38421        0.03611
B         -1.18328        4.21228       -0.18848
B          0.26806        3.36573        0.35427
B         -1.15585        0.83817        0.68815
B          1.71861        0.85483        0.78488
B          1.66409        4.15620       -0.31701
B         -4.07234        0.87356        0.29806
B          1.64791        2.46795        0.24891
B         -4.00429        2.57217       -0.13220
B          0.24242        4.82760       -0.45154
B          3.09267        3.30379       -0.33911
B          3.11056        1.67368        0.20223
B          4.56895        0.86283       -0.30146
B          0.27402       -1.69635        0.80627
B          1.65622       -2.38720        0.17462
B          3.11614       -1.58688        0.15234
B          4.57172       -0.75602       -0.32623
B          4.40774       -2.31000       -0.59590
B          3.10380       -3.19972       -0.43862
B          1.67814       -4.05729       -0.44268
B          0.27946       -3.29251        0.25239
B          0.25878       -4.72912       -0.59777
B         -2.58273       -3.31104       -0.06634
B         -1.16901       -4.12702       -0.31608
B         -2.60468       -1.67908        0.33839
B         -3.99561       -2.49906       -0.20979
B         -4.06945       -0.81465        0.27223
B         -1.17378       -2.50339        0.49389
B         -1.18245        2.56462        0.57144
B          3.19500        0.13745        0.57572
B         -1.15308       -0.78123        0.66338
B          4.39964        2.42377       -0.52347
B         -5.32525        1.77304       -0.65357
B         -5.32048        0.13849       -0.44462
B         -5.31933       -1.68888       -0.70654
B         -6.48398       -0.72690       -1.29854
B         -6.48663        0.82564       -1.27478
B          1.72143       -0.79100        0.75970
B         -0.64462       -1.34629        2.87355
B          0.26811        1.75337        0.85905
B          5.91026        1.71859       -0.74272
B          6.10850        0.00686       -0.83318
B          5.91370       -1.72315       -0.86600
B         -0.04439       -0.46865        0.27033
