45
isomer_0182.log	Energy: -111742.2467257
B          2.58153       -1.61873        0.37213
B          2.58970       -3.25568       -0.01245
B          1.19116       -4.10170       -0.24725
B         -0.27127       -3.28823        0.31594
B          1.11396       -0.74500        0.69109
B         -1.75951       -0.80883        0.79748
B         -1.65720       -4.08827       -0.36485
B          4.02916       -0.72720        0.29029
B         -1.66545       -2.41058        0.23183
B          3.98622       -2.41853       -0.17076
B         -0.22567       -4.73456       -0.51658
B         -3.09909       -3.25827       -0.36638
B         -3.14059       -1.63879        0.20477
B         -4.61343       -0.84203       -0.27892
B         -0.35515        1.76404        0.86055
B         -1.75041        2.44438        0.24646
B         -3.19764        1.62164        0.21460
B         -4.64176        0.77676       -0.27404
B         -4.50326        2.33780       -0.51578
B         -3.21290        3.24499       -0.34677
B         -1.80093        4.12490       -0.34008
B         -0.38778        3.36975        0.33601
B         -0.39290        4.82178       -0.48777
B          2.47255        3.43931        0.00774
B          1.04523        4.23728       -0.22211
B          2.52169        1.80078        0.38244
B          3.89748        2.65250       -0.15547
B          3.99961        0.96095        0.29538
B          1.07858        2.59941        0.55798
B          1.16727       -2.46840        0.54270
B         -3.24777       -0.11117        0.60662
B          1.08562        0.87433        0.69598
B         -4.42043       -2.39579       -0.53005
B          5.29247       -1.58926       -0.68199
B          5.26277        0.04093       -0.44314
B          5.23189        1.87253       -0.67156
B          6.40929        0.94003       -1.28511
B          6.43646       -0.61245       -1.28979
B         -1.78831        0.83694        0.80244
B          1.54123       -1.82335       -0.02785
B         -0.29478       -1.68554        0.85015
B         -5.94276       -1.71067       -0.73111
B         -6.16824       -0.00092       -0.78953
B         -6.00081        1.73226       -0.79135
B          1.60419       -0.15937        2.23810
