45
isomer_1820.log	Energy: -112869.7256863
B         -2.73661        1.79387        0.33186
B         -2.64106        3.47337        0.06979
B         -1.19304        4.26575       -0.10465
B          0.27253        3.45080        0.39581
B         -1.40759        1.03817        0.51446
B          1.65632        0.83549        0.80857
B          1.70627        4.19468       -0.27155
B         -4.04594        0.88614        0.31395
B          1.70973        2.52379        0.27040
B         -4.07127        2.58675       -0.10238
B          0.29871        4.82058       -0.38196
B          3.08308        3.30620       -0.29746
B          3.11425        1.71142        0.19884
B          4.48325        0.86516       -0.25498
B          0.25724       -1.73458        0.69317
B          1.68324       -2.45617        0.13449
B          3.06108       -1.63709        0.12760
B          4.42713       -0.76234       -0.29556
B          4.43821       -2.41212       -0.67680
B          3.02647       -3.23114       -0.42828
B          1.63660       -4.11207       -0.42185
B          0.26154       -3.41176        0.29093
B          0.18834       -4.75706       -0.51966
B         -2.62691       -3.42998        0.01793
B         -1.26141       -4.24523       -0.20177
B         -2.63407       -1.74137        0.40868
B         -4.01035       -2.47341       -0.14067
B         -4.03046       -0.86166        0.30757
B         -1.26092       -2.67981        0.54348
B         -1.26055        2.74266        0.54460
B          3.16468        0.07254        0.53902
B         -1.10075       -1.04440        0.61006
B          4.48832        2.55102       -0.56627
B         -5.29360        1.75519       -0.62288
B         -5.26985        0.05864       -0.39693
B         -5.26344       -1.65617       -0.62745
B         -6.42128       -0.69315       -1.22280
B         -6.43626        0.80072       -1.21278
B          1.65139       -0.82315        0.79393
B         -0.37061        0.33213        0.73057
B          0.39988        1.78472        0.85775
B          5.73542        1.65982       -0.83451
B          5.86634        0.08303       -0.87402
B          5.67140       -1.52692       -0.91395
B          1.05455       -1.90307        1.86571
