45
isomer_1821.log	Energy: -113441.9614280
B          2.45208        1.82300       -0.47077
B          2.37569        3.45106        0.10935
B          0.98167        4.21786        0.27704
B         -0.43930        3.42787       -0.33923
B          1.14865        0.95907       -1.03762
B         -1.77296        0.86150       -0.72013
B         -1.83144        4.13265        0.42247
B          3.72920        1.01637        0.01302
B         -1.84634        2.55162       -0.45861
B          3.79864        2.68979        0.15800
B         -0.45213        4.75330        0.56021
B         -3.19155        3.24822        0.35214
B         -3.21236        1.68056       -0.16199
B         -4.64351        0.72993       -0.04531
B         -0.27806       -1.65358       -1.30376
B         -1.55331       -2.48759       -0.56725
B         -3.02553       -1.74301       -0.31699
B         -4.41159       -0.90564        0.21446
B         -4.26712       -2.56237        0.59642
B         -2.83142       -3.27184        0.16775
B         -1.38342       -3.97992        0.24336
B          0.07515       -3.24305       -0.39253
B         -0.05399       -4.50085        0.66334
B          2.65918       -3.19464        0.79668
B          1.38111       -4.10421        0.81061
B          2.47448       -1.74149       -0.39496
B          3.73657       -2.13722        0.65276
B          3.68377       -0.64650        0.00896
B          1.81937       -3.42192       -0.59192
B          1.09014        2.68679       -0.57453
B         -3.25410       -0.02629       -0.65153
B          1.28527       -0.63331       -1.02623
B         -4.49728        2.36453        0.69108
B          5.12800        1.93367        0.50999
B          5.17617        0.23625        0.08137
B          5.16259       -1.31716        0.68605
B          6.36798       -0.47357        1.00421
B          6.24416        1.00814        1.06513
B         -1.68404       -0.78805       -1.00710
B          1.16957       -2.28533       -1.41950
B         -0.39824        1.88228       -0.97197
B         -5.51943        1.33092        1.14713
B         -5.69585       -0.21005        1.10573
B         -5.44804       -1.75339        1.08329
B         -0.24845        0.09561       -0.96864
