45
isomer_1822.log	Energy: -111804.6342021
B         -2.60595       -1.68077       -0.40676
B         -2.59343       -3.31760       -0.02176
B         -1.18454       -4.14412        0.22048
B          0.26937       -3.31058       -0.33540
B         -1.14900       -0.78687       -0.71840
B          1.72558       -0.81090       -0.80998
B          1.66272       -4.09120        0.35273
B         -4.06619       -0.80936       -0.33262
B          1.65081       -2.41369       -0.24436
B         -4.00221       -2.49984        0.12912
B          0.23952       -4.75723        0.49728
B          3.09295       -3.24131        0.36146
B          3.11495       -1.62154       -0.20993
B          4.57411       -0.80434        0.28111
B          0.28607        1.74224       -0.88101
B          1.66860        2.44198       -0.25994
B          3.12690        1.63937       -0.22039
B          4.58004        0.81468        0.27592
B          4.41869        2.37371        0.51650
B          3.11677        3.26289        0.34059
B          1.69280        4.12316        0.32638
B          0.29375        3.34837       -0.35676
B          0.27452        4.80051        0.46662
B         -2.56891        3.37837       -0.04324
B         -1.15399        4.19608        0.19373
B         -2.59342        1.73924       -0.41773
B         -3.98363        2.57193        0.11285
B         -4.06001        0.87904       -0.33804
B         -1.16064        2.55774       -0.58606
B         -1.17920       -2.51081       -0.56980
B          3.20304       -0.09266       -0.61165
B         -1.14307        0.83271       -0.72360
B          4.40135       -2.36057        0.53169
B         -5.32243       -1.68863        0.63339
B         -5.31409       -0.05824        0.39423
B         -5.30975        1.77367        0.62228
B         -6.47727        0.82507        1.23003
B         -6.48296       -0.72763        1.23501
B          1.73161        0.83510       -0.81526
B         -1.86211       -0.13663       -0.79237
B          0.27343       -1.70784       -0.86994
B          5.91300       -1.65439        0.74038
B          6.11447        0.05833        0.79948
B          5.92304        1.78902        0.79994
B          0.86468       -0.75647       -0.49620
