45
isomer_1825.log	Energy: -113347.3362305
B          2.30206        1.97765       -0.55806
B          2.04372        3.62764        0.20843
B          0.63380        4.26249        0.17632
B         -0.69909        3.38104       -0.48248
B          1.01732        1.12007       -1.14680
B         -1.82434        0.75037       -0.93988
B         -2.18650        4.03339        0.03830
B          3.66099        1.34782       -0.07298
B         -2.05000        2.39323       -0.71526
B          3.36336        2.88419        0.45099
B         -0.85736        4.73646        0.30894
B         -3.47954        3.06585       -0.03818
B         -3.38059        1.47558       -0.45464
B         -4.66045        0.38690       -0.06340
B         -0.20444       -1.66542       -1.48762
B         -1.11442       -2.27881       -0.02400
B         -2.72582       -1.81475       -0.03337
B         -4.13192       -1.09695        0.50570
B         -3.77632       -2.64761        1.09640
B         -2.30854       -3.29010        0.68106
B         -0.98260       -3.98236        0.42733
B          0.16542       -3.21642       -0.77512
B          0.50757       -4.45223        0.29812
B          2.85760       -3.00058       -0.65985
B          1.80488       -4.15871       -0.39364
B          2.36516       -1.26019       -0.37889
B          3.93648       -1.96647       -0.09934
B          3.77989       -0.37650       -0.13437
B          1.43950       -2.24020       -1.44120
B          0.83940        2.63833       -0.55167
B         -3.19558       -0.27752       -0.64895
B          1.07128       -0.47790       -1.18988
B         -4.66862        2.11115        0.42064
B          4.75733        2.15745        0.97607
B          4.95028        0.55550        0.51915
B          5.08930       -1.12788        0.69317
B          6.03446       -0.18259        1.48471
B          5.89198        1.30769        1.61736
B         -1.54993       -0.85533       -0.97949
B          1.46577       -2.74530        0.43310
B         -0.52985        1.72945       -1.01249
B         -5.57412        1.04320        1.07504
B         -5.54696       -0.46914        1.27380
B         -5.06296       -1.95516        1.48548
B          0.53239       -1.44734        0.11141
