45
isomer_1826.log	Energy: -113441.9681524
B          2.47525       -1.74141        0.39458
B          2.66252       -3.19371       -0.79603
B          1.38555       -4.10454       -0.81128
B          0.07622       -3.24204        0.39280
B          1.28559       -0.63242        1.02356
B         -1.68363       -0.78868        1.00543
B         -1.38043       -3.97991       -0.24505
B          3.68449       -0.64465       -0.00639
B         -1.55247       -2.48794        0.56506
B          3.73962       -2.13572       -0.65034
B         -0.04968       -4.49993       -0.66306
B         -2.82934       -3.27252       -0.17069
B         -3.02497       -1.74401        0.31575
B         -4.41220       -0.90724       -0.21370
B         -0.39931        1.88202        0.97179
B         -1.84792        2.55095        0.45897
B         -3.21443        1.67888        0.16393
B         -4.64512        0.72777        0.04807
B         -4.49949        2.36261       -0.68899
B         -3.19392        3.24674       -0.35041
B         -1.83422        4.13176       -0.42165
B         -0.44140        3.42791        0.33984
B         -0.45534        4.75267       -0.56093
B          2.37345        3.45201       -0.11220
B          0.97890        4.21787       -0.27904
B          2.45088        1.82398        0.46661
B          3.79747        2.69166       -0.16054
B          3.72965        1.01866       -0.01539
B          1.08853        2.68689        0.57210
B          1.81988       -3.42149        0.59174
B         -3.25549       -0.02800        0.65383
B          1.14790        0.95919        1.03397
B         -4.26565       -2.56360       -0.59812
B          5.16529       -1.31569       -0.68100
B          5.17652        0.23846       -0.07955
B          5.12803        1.93607       -0.51080
B          6.24558        1.00983       -1.06242
B          6.37084       -0.47172       -0.99862
B         -1.77532        0.86150        0.72417
B          1.17014       -2.28423        1.41981
B         -0.27724       -1.65377        1.30287
B         -5.44723       -1.75521       -1.08419
B         -5.69698       -0.21245       -1.10457
B         -5.52137        1.32846       -1.14464
B         -0.24914        0.09500        0.96471
