45
isomer_1827.log	Energy: -112474.0977017
B          2.63402        1.86133       -0.41957
B          2.56453        3.48099       -0.00161
B          1.13399        4.26245        0.24352
B         -0.29173        3.45797       -0.31615
B          1.24402        1.01035       -0.73129
B         -1.80800        0.93181       -0.84600
B         -1.68866        4.18709        0.36248
B          4.08872        1.02054       -0.37600
B         -1.70175        2.54496       -0.25348
B          3.95104        2.67208        0.12570
B         -0.27574        4.81077        0.51194
B         -3.12727        3.34473        0.36033
B         -3.18432        1.75373       -0.22573
B         -4.66326        0.92025        0.24806
B         -0.50008       -1.55762       -0.97908
B         -1.84318       -2.31322       -0.30694
B         -3.24973       -1.52047       -0.26671
B         -4.67832       -0.70634        0.22355
B         -4.56886       -2.27326        0.46283
B         -3.22626       -3.14236        0.26748
B         -1.83421       -3.98806        0.27451
B         -0.29093       -3.24404       -0.36936
B         -0.52188       -4.84960        0.48458
B          2.85578       -3.25044       -0.15058
B          1.50486       -4.17525        0.12748
B          2.82271       -1.52781       -0.48586
B          4.18539       -2.33940        0.00466
B          4.16788       -0.68188       -0.40380
B          1.44347       -2.48321       -0.64803
B          1.20954        2.67615       -0.55917
B         -3.30216        0.20098       -0.64739
B          1.37056       -0.39968       -0.74187
B         -4.50310        2.51039        0.54416
B          5.27648        1.90508        0.60447
B          5.33833        0.26914        0.33455
B          5.41466       -1.49628        0.52003
B          6.47827       -0.53642        1.12612
B          6.45029        0.97545        1.17975
B         -1.85894       -0.71740       -0.87714
B          0.70729       -4.20313        0.96343
B         -0.25990        1.86801       -0.87718
B         -5.92000        1.70352        0.70912
B         -6.11261        0.09269        0.73613
B         -5.95319       -1.55157        0.70437
B          0.52228       -1.50302       -0.63632
