45
isomer_1829.log	Energy: -112534.8995302
B          2.57508       -1.61857        0.40059
B          2.58602       -3.25172        0.00019
B          1.18911       -4.09604       -0.24994
B         -0.27657       -3.28871        0.31366
B          1.10548       -0.74864        0.72053
B         -1.76846       -0.81476        0.81166
B         -1.65863       -4.08272       -0.38191
B          4.02267       -0.72565        0.33478
B         -1.67074       -2.41091        0.23097
B          3.98291       -2.41245       -0.14288
B         -0.22602       -4.72687       -0.53262
B         -3.10090       -3.25339       -0.38273
B         -3.14609       -1.63955        0.20389
B         -4.61685       -0.83878       -0.27954
B         -0.36570        1.75799        0.90685
B         -1.75816        2.44365        0.29229
B         -3.20480        1.62061        0.24508
B         -4.64600        0.77987       -0.25909
B         -4.50704        2.34325       -0.48496
B         -3.21800        3.24933       -0.30059
B         -1.80651        4.12976       -0.27817
B         -0.39645        3.36871        0.39776
B         -0.39810        4.82866       -0.41191
B          2.46547        3.44271        0.08475
B          1.03895        4.24224       -0.14461
B          2.51351        1.80064        0.44378
B          3.89160        2.65815       -0.07882
B          3.99227        0.96235        0.35610
B          1.06914        2.59689        0.61970
B          1.16039       -2.47049        0.55569
B         -3.25608       -0.11594        0.61999
B          1.07632        0.87056        0.74099
B         -4.42181       -2.38994       -0.54475
B          5.29134       -1.57768       -0.63938
B          5.25962        0.05010       -0.38487
B          5.22900        1.88382       -0.59565
B          6.40997        0.95784       -1.21222
B          6.43793       -0.59451       -1.23183
B         -1.79809        0.83087        0.83244
B          1.89240       -0.17611       -0.64000
B         -0.30359       -1.69130        0.86328
B         -5.94344       -1.70357       -0.74691
B         -6.16945        0.00656       -0.78988
B         -6.00287        1.73975       -0.77402
B          1.47118       -1.93604        1.51233
