45
isomer_1831.log	Energy: -113375.8188175
B         -2.49928        1.77223        0.59711
B         -2.44059        3.45250       -0.09038
B         -1.06025        4.20702       -0.26306
B          0.38627        3.44130        0.37661
B         -1.15208        1.00256        1.02478
B          1.71044        0.83880        0.70101
B          1.78237        4.16471       -0.40556
B         -3.85345        0.99698        0.23409
B          1.79662        2.55845        0.40607
B         -3.74908        2.59984       -0.19678
B          0.38890        4.74753       -0.55332
B          3.14041        3.28338       -0.32501
B          3.16167        1.69131        0.21725
B          4.59700        0.77952        0.01870
B          0.14736       -1.83473        1.15547
B          1.61820       -2.53893        0.55911
B          3.02180       -1.71242        0.29573
B          4.42184       -0.85937       -0.20356
B          4.32472       -2.50273       -0.63413
B          2.91383       -3.23664       -0.25864
B          1.53710       -4.05750       -0.44328
B          0.14908       -3.31085        0.15395
B          0.17770       -4.60717       -0.78501
B         -2.61442       -3.24939       -0.51998
B         -1.27564       -4.03173       -0.65697
B         -2.62690       -1.71940        0.75096
B         -3.79263       -2.30187       -0.43238
B         -3.86128       -0.78513        0.20389
B         -1.41039       -2.87569        0.54825
B         -1.10948        2.63661        0.46778
B          3.21851       -0.02465        0.62137
B         -1.36140       -0.57170        1.20700
B          4.44280        2.40416       -0.66310
B         -5.08760        1.80549       -0.66143
B         -5.13305        0.14882       -0.31614
B         -5.11352       -1.44718       -0.80876
B         -6.17296       -0.53285       -1.42723
B         -6.15050        0.94608       -1.36142
B          1.62977       -0.82193        0.98202
B         -1.40452       -1.97041        1.85912
B          0.36857        1.86707        0.91838
B          5.49722        1.40311       -1.14029
B          5.70856       -0.11672       -1.09042
B          5.49912       -1.66815       -1.07180
B          0.22916        0.02967        1.00997
