45
isomer_1832.log	Energy: -113675.8864002
B          2.56324       -1.73086        0.53075
B          2.51381       -3.30409       -0.03646
B          1.15680       -4.14913       -0.10919
B         -0.26895       -3.40259        0.53778
B          1.17017       -0.85051        1.06836
B         -1.71791       -0.84339        0.78829
B         -1.64200       -4.16977       -0.25869
B          3.98405       -0.84533        0.22500
B         -1.72460       -2.55118        0.43028
B          3.86979       -2.48522       -0.27528
B         -0.21977       -4.74793       -0.35355
B         -3.00875       -3.34064       -0.27845
B         -3.12907       -1.73333        0.22093
B         -4.54708       -0.89416       -0.14480
B         -0.36901        1.82545        1.11711
B         -1.80185        2.53248        0.48841
B         -3.17347        1.68066        0.26034
B         -4.53207        0.79771       -0.23764
B         -4.40696        2.44429       -0.74918
B         -3.09180        3.28049       -0.26638
B         -1.74797        4.14421       -0.24655
B         -0.35096        3.38497        0.51428
B         -0.34147        4.74576       -0.35266
B          2.42776        3.33485       -0.03988
B          1.04782        4.15732       -0.12308
B          2.50928        1.76001        0.48870
B          3.80999        2.53725       -0.29272
B          3.95636        0.91045        0.21526
B          1.11944        2.59019        0.76533
B          1.18566       -2.57728        0.78889
B         -3.29368       -0.01598        0.60933
B          1.12980        0.84876        1.04214
B         -4.32675       -2.49969       -0.77011
B          5.10462       -1.65193       -0.84488
B          5.19550        0.04415       -0.52282
B          5.06076        1.73859       -0.86479
B          6.08427        0.81368       -1.61292
B          6.10482       -0.70713       -1.60541
B         -1.78644        0.83043        0.91136
B          2.60964        0.01611        0.74552
B         -0.34293       -0.00269        1.09404
B         -5.37357       -1.56952       -1.33771
B         -5.62039       -0.03338       -1.30417
B         -5.47335        1.51841       -1.30134
B         -0.31278       -1.83047        1.08657
