45
isomer_1833.log	Energy: -111519.8442970
B         -2.58270        1.73869        0.36253
B         -2.56325        3.37853       -0.00914
B         -1.15057        4.20311       -0.23544
B          0.29740        3.36114        0.32322
B         -1.13024        0.83832        0.67650
B          1.74373        0.85374        0.78714
B          1.69735        4.14347       -0.34942
B         -4.04475        0.87191        0.27177
B          1.67700        2.46123        0.23401
B         -3.97319        2.56588       -0.17587
B          0.27692        4.81453       -0.49793
B          3.12532        3.28976       -0.35562
B          3.13920        1.66538        0.20280
B          4.59936        0.84817       -0.28525
B          0.29693       -1.69594        0.82808
B          1.68163       -2.39444        0.21047
B          3.14231       -1.59553        0.18699
B          4.60091       -0.77085       -0.29310
B          4.43696       -2.32744       -0.54732
B          3.13152       -3.21445       -0.38715
B          1.70518       -4.07090       -0.38925
B          0.30375       -3.29780        0.29094
B          0.28604       -4.74320       -0.54426
B         -2.55686       -3.31743       -0.04160
B         -1.14261       -4.13708       -0.27588
B         -2.57943       -1.68131        0.34595
B         -3.96835       -2.50589       -0.20046
B         -4.04314       -0.81648        0.26358
B         -1.14999       -2.50507        0.51706
B         -1.15483        2.56348        0.54163
B          3.22053        0.13307        0.59272
B         -1.12869       -0.78125        0.66865
B          4.43244        2.40684       -0.52437
B         -5.29224        1.76238       -0.69533
B         -5.28985        0.13010       -0.46930
B         -5.28894       -1.69991       -0.71212
B         -6.44988       -0.74326       -1.31983
B         -6.45136        0.80945       -1.31230
B          1.74530       -0.79226        0.77916
B         -1.50534       -0.40651        2.77671
B          0.29363        1.75414        0.84481
B          5.94352        1.69822       -0.72884
B          6.14077       -0.01450       -0.80044
B          5.94470       -1.74461       -0.81615
B         -0.41621       -1.03546        0.26165
