45
isomer_1835.log	Energy: -113425.9018762
B         -2.48997       -1.71243       -0.33202
B         -2.41805       -3.32907        0.07032
B         -1.06082       -4.14071        0.19728
B          0.35656       -3.40277       -0.48623
B         -1.02821       -0.78400       -0.71263
B          1.69673       -0.76759       -0.86829
B          1.74490       -4.09346        0.30771
B         -3.93531       -0.89329       -0.31345
B          1.76220       -2.47993       -0.39963
B         -3.81794       -2.49578        0.29549
B          0.34663       -4.70391        0.45022
B          3.09901       -3.19099        0.28764
B          3.16022       -1.64339       -0.27030
B          4.52058       -0.73940        0.17805
B          0.31644        1.74014       -0.97555
B          1.66774        2.49365       -0.32132
B          3.09590        1.72965       -0.23853
B          4.44819        0.90314        0.21798
B          4.41260        2.56578        0.62046
B          3.00408        3.31106        0.34643
B          1.64938        4.14132        0.36024
B          0.26406        3.39035       -0.40524
B          0.21832        4.71991        0.46028
B         -2.59789        3.33678       -0.06817
B         -1.18355        4.14148        0.13356
B         -2.56727        1.72531       -0.52644
B         -3.95933        2.51835        0.12190
B         -4.00897        0.86838       -0.35694
B         -1.20667        2.59257       -0.64594
B         -1.10694       -2.54638       -0.63940
B          3.21857        0.04343       -0.59516
B         -1.12961        0.88781       -0.86415
B          4.51081       -2.39943        0.56961
B         -5.10588       -1.72391        0.74370
B         -5.19278       -0.04582        0.40830
B         -5.19597        1.66432        0.62746
B         -6.25880        0.70439        1.32525
B         -6.22383       -0.80359        1.36785
B          1.67286        0.86525       -0.89068
B         -2.56793        0.03974       -0.76809
B          0.35864       -1.92470       -1.26332
B          5.69006       -1.48058        0.93922
B          5.83944        0.10275        0.94251
B          5.62386        1.66706        0.96892
B          0.37793       -0.85151        0.00112
