45
isomer_1836.log	Energy: -113675.8854451
B         -2.50860        1.76000        0.48738
B         -2.42714        3.33475       -0.04103
B         -1.04720        4.15726       -0.12307
B          0.35106        3.38553        0.51605
B         -1.12989        0.84915        1.04293
B          1.78514        0.83003        0.90986
B          1.74815        4.14442       -0.24515
B         -3.95606        0.91061        0.21472
B          1.80198        2.53258        0.48929
B         -3.80926        2.53730       -0.29390
B          0.34187        4.74591       -0.35154
B          3.09179        3.28072       -0.26493
B          3.17332        1.68045        0.26041
B          4.53246        0.79816       -0.23625
B          0.31276       -1.83122        1.08892
B          1.72445       -2.55117        0.43162
B          3.12849       -1.73326        0.22071
B          4.54580       -0.89394       -0.14830
B          4.32639       -2.49952       -0.77160
B          3.00793       -3.33973       -0.27980
B          1.64177       -4.16956       -0.25882
B          0.26905       -3.40298        0.53862
B          0.21989       -4.74825       -0.35279
B         -2.51371       -3.30399       -0.03485
B         -1.15660       -4.14939       -0.10787
B         -2.56257       -1.73015        0.52905
B         -3.87003       -2.48512       -0.27444
B         -3.98393       -0.84504        0.22428
B         -1.18579       -2.57780        0.79023
B         -1.11918        2.59031        0.76585
B          3.29374       -0.01659        0.60873
B         -2.60931        0.01642        0.74528
B          4.40637        2.44403       -0.74941
B         -5.06028        1.73858       -0.86595
B         -5.19521        0.04459       -0.52367
B         -5.10456       -1.65200       -0.84489
B         -6.10435       -0.70727       -1.60621
B         -6.08401        0.81360       -1.61397
B          1.71837       -0.84364        0.79059
B         -1.16989       -0.85031        1.06857
B          0.36896        1.82571        1.11801
B          5.47182        1.51811       -1.30266
B          5.61939       -0.03382       -1.30551
B          5.37394       -1.57041       -1.33921
B          0.34267       -0.00303        1.09474
