45
isomer_1837.log	Energy: -113501.4178592
B          2.68159       -1.23273        1.08637
B          3.75324       -3.42137       -0.14030
B          2.59087       -4.23651       -0.41440
B          0.47882       -2.98667        0.73019
B          1.08287       -0.37275        1.45194
B         -1.67755       -0.96098        1.13726
B         -0.48046       -3.80287       -0.38698
B          3.79227       -0.23441        0.32002
B         -1.10687       -2.40249        0.38380
B          3.85583       -1.90935       -0.01545
B          1.04961       -4.06208       -0.38659
B         -2.05763       -3.41818       -0.53531
B         -2.67575       -2.06658        0.14335
B         -4.16586       -1.46472       -0.43069
B         -0.77720        1.73193        1.03065
B         -2.31953        2.24594        0.56937
B         -3.57363        1.19871        0.32952
B         -4.77559        0.03678        0.00228
B         -4.88760        1.69791       -0.62521
B         -3.74994        2.75499       -0.18818
B         -2.55073        3.82563       -0.23549
B         -1.04778        3.34177        0.47238
B         -1.26930        4.63790       -0.42552
B          1.73341        3.68092       -0.13029
B          0.21497        4.27737       -0.20066
B          2.09538        2.21172        0.55852
B          3.19408        3.08306       -0.42840
B          3.61906        1.54022        0.23154
B          0.54622        2.77700        0.60448
B          2.27325       -2.87983        0.47060
B         -3.29525       -0.48102        0.66283
B          0.79903        1.13543        1.15149
B         -3.57023       -2.97130       -1.01500
B          4.64049       -0.91941       -1.05721
B          4.79560        0.72371       -0.65180
B          4.46188        2.41303       -1.02795
B          5.34969        1.54263       -1.94815
B          5.39387        0.03457       -1.99059
B         -1.96625        0.61900        0.93068
B          2.39683        0.57602        0.91708
B         -0.18135       -1.45591        1.46856
B         -4.90503       -2.40191       -1.48070
B         -5.51403       -0.97412       -1.35739
B         -5.66882        0.54883       -1.23578
B          1.41753       -1.97987        1.65515
