45
isomer_1838.log	Energy: -113203.1843103
B         -2.52566        1.70044        0.36246
B         -2.51711        3.40491       -0.01823
B         -1.16261        4.19802       -0.21850
B          0.32280        3.40194        0.32920
B         -1.12029        0.83858        0.53909
B          1.69718        0.83694        0.87820
B          1.70858        4.15623       -0.34339
B         -3.92044        0.90275        0.33655
B          1.72950        2.52105        0.26628
B         -3.86818        2.52698       -0.15198
B          0.27818        4.75868       -0.49156
B          3.10002        3.25440       -0.30825
B          3.12749        1.68775        0.24353
B          4.51717        0.78632       -0.17501
B          0.26885       -1.68202        0.79541
B          1.65842       -2.50289        0.20773
B          3.07399       -1.70483        0.21707
B          4.47249       -0.86874       -0.16602
B          4.42974       -2.53220       -0.56867
B          2.99200       -3.29466       -0.35743
B          1.56961       -4.15333       -0.36977
B          0.21587       -3.34233        0.31708
B          0.12566       -4.71240       -0.47554
B         -2.64410       -3.30224        0.09710
B         -1.30619       -4.12433       -0.15221
B         -2.58252       -1.58191        0.42598
B         -3.99007       -2.40900       -0.05332
B         -3.97032       -0.79093        0.39602
B         -1.22836       -2.51540        0.51566
B         -1.15395        2.59429        0.50717
B          3.18652        0.00583        0.60243
B         -1.19198       -0.76375        0.89877
B          4.52595        2.45950       -0.50726
B         -5.18433        1.74293       -0.59692
B         -5.21072        0.09499       -0.30458
B         -5.27983       -1.60384       -0.49852
B         -6.39529       -0.67668       -1.09342
B         -6.34830        0.83796       -1.15493
B          1.68724       -0.83706        0.80987
B         -0.91789       -0.97156       -0.59586
B          0.32910        1.75366        0.84928
B          5.75089        1.55867       -0.76117
B          5.88345       -0.05384       -0.77907
B          5.67552       -1.64886       -0.82293
B          0.19193        0.04997        1.36966
