45
isomer_1839.log	Energy: -113524.0718264
B         -2.35640       -1.59147       -0.52782
B         -1.96555       -3.16798        0.24480
B         -1.12830       -4.22038       -0.62843
B          0.33870       -3.36968       -1.39388
B         -1.25048       -0.75383       -1.32217
B          1.56482       -0.70637       -0.68486
B          1.50515       -4.06486       -0.03615
B         -3.58452       -0.84040        0.16596
B          1.31705       -2.33782        0.01064
B         -3.28327       -2.35786        0.68756
B          0.27806       -4.80255       -0.45448
B          2.80255       -3.16760        0.38161
B          2.87995       -1.59710        0.03394
B          4.35070       -0.70428        0.27174
B          0.24280        1.87955       -1.31650
B          1.56844        2.62780       -0.49968
B          2.94954        1.84941       -0.15901
B          4.17812        0.93092        0.55680
B          4.11548        2.61412        0.90007
B          2.82055        3.44041        0.28758
B          1.46401        4.26746        0.11540
B          0.13739        3.46512       -0.75332
B          0.04671        4.82946        0.08619
B         -2.63558        3.36002       -0.27271
B         -1.32737        4.19098       -0.22460
B         -2.58930        1.63777       -0.70497
B         -3.84407        2.46893        0.10549
B         -3.84377        0.85249       -0.07455
B         -1.30918        2.59782       -1.07510
B         -1.17209       -2.52549       -1.20709
B          3.10328        0.11547       -0.46979
B         -1.27283        0.90223       -1.31246
B          4.08312       -2.35803        0.92171
B         -4.56060       -1.63323        1.35598
B         -4.94163       -0.08121        0.72283
B         -5.00102        1.59301        0.92368
B         -5.81002        0.71175        1.88246
B         -5.56937       -0.74306        2.10051
B          1.64540        0.97042       -0.95167
B         -0.14025       -3.10428        0.33070
B          0.34121       -1.70460       -1.30748
B          5.12561       -1.39475        1.48221
B          5.34482        0.14419        1.52522
B          5.17599        1.71278        1.50699
B          0.20615        0.06476       -1.22337
