45
isomer_1840.log	Energy: -113416.8835134
B          2.44855        1.81036       -0.50753
B          2.30751        3.41345        0.15622
B          0.91540        4.19858        0.23575
B         -0.47753        3.40063       -0.44297
B          1.11995        0.94372       -1.05069
B         -1.81746        0.79115       -0.79995
B         -1.87741        4.10921        0.30090
B          3.82145        1.06099       -0.14966
B         -1.87858        2.50674       -0.52834
B          3.70732        2.67100        0.26594
B         -0.50681        4.74299        0.45147
B         -3.22906        3.21010        0.24729
B         -3.25846        1.64244       -0.23501
B         -4.67954        0.68681       -0.04681
B         -0.25059       -1.73021       -1.13964
B         -1.63288       -2.49118       -0.46231
B         -3.07203       -1.78539       -0.26084
B         -4.43318       -0.92705        0.30654
B         -4.27378       -2.56889        0.75885
B         -2.84194       -3.29570        0.35176
B         -1.41013       -4.07959        0.35967
B         -0.10924       -3.17006       -0.26681
B          0.00226       -4.60166        0.43560
B          2.66223       -3.11455        0.81985
B          1.40922       -3.92918        0.16310
B          2.63720       -1.49653       -0.65530
B          3.80742       -2.20733        0.42018
B          3.91466       -0.61506       -0.20155
B          1.24702       -2.43221       -0.99324
B          1.05199        2.65403       -0.59081
B         -3.31697       -0.08683       -0.64142
B          1.21412       -0.64398       -1.01018
B         -4.53180        2.33246        0.63495
B          5.06823        1.97343        0.69403
B          5.21739        0.29913        0.21420
B          5.19721       -1.28793        0.72236
B          6.22525       -0.37202        1.35390
B          6.12214        1.12129        1.36468
B         -1.74240       -0.83122       -1.02266
B          2.68722       -3.16570       -0.74222
B         -0.42091        1.84923       -1.01459
B         -5.54067        1.32008        1.15600
B         -5.72268       -0.20898        1.17628
B         -5.46203       -1.75236        1.20864
B         -0.29765        0.05577       -1.03560
