45
isomer_1841.log	Energy: -113458.7471607
B         -2.56809       -1.60798       -0.43773
B         -2.52399       -3.31412        0.04870
B         -1.22620       -4.12597       -0.18950
B          0.23193       -3.33046       -0.94167
B         -1.21675       -0.74054       -0.83347
B          1.57862       -0.75278       -0.51617
B          1.55545       -4.14114        0.00625
B         -3.89399       -0.85358       -0.10312
B          1.40830       -2.41354       -0.04866
B         -3.80467       -2.45305        0.31234
B          0.18091       -4.71727       -0.07918
B          2.87283       -3.28669        0.30184
B          2.99982       -1.71881       -0.10894
B          4.46144       -0.86795        0.10910
B          0.32639        1.81883       -1.21134
B          1.70983        2.56990       -0.47596
B          3.08764        1.74659       -0.22265
B          4.35983        0.78777        0.39899
B          4.33446        2.46476        0.76581
B          3.01578        3.32250        0.26902
B          1.64768        4.15883        0.19923
B          0.27433        3.43676       -0.65472
B          0.22388        4.70725        0.31532
B         -2.53752        3.38248       -0.05481
B         -1.18905        4.14674        0.01952
B         -2.54896        1.66160       -0.63489
B         -3.79793        2.51429        0.20188
B         -3.90565        0.91292       -0.15268
B         -1.20103        2.57723       -0.74624
B         -1.08691       -2.40830       -0.25825
B          3.14995       -0.00011       -0.49980
B         -1.20253        0.93710       -1.06971
B          4.20742       -2.50274        0.76389
B         -5.11853       -1.60888        0.86962
B         -5.15274        0.03634        0.44918
B         -5.09194        1.69038        0.77271
B         -6.12579        0.79756        1.52195
B         -6.13186       -0.69909        1.55618
B          1.74968        0.92417       -0.98537
B          0.09920       -1.25374        0.23275
B          0.28834       -1.73418       -1.45983
B          5.31206       -1.56313        1.26490
B          5.57300       -0.04077        1.27225
B          5.42817        1.53647        1.27945
B          0.24718        0.00435       -1.24619
