45
isomer_1844.log	Energy: -113169.5928230
B          2.61475       -1.61857        0.82030
B          2.60259       -2.97082       -0.43004
B          1.22524       -3.63176       -0.84149
B         -0.16140       -2.88385       -0.16343
B          0.98746       -0.50420        0.72129
B         -1.51675       -0.66016        0.95378
B         -1.37085       -3.98510       -0.56136
B          4.01314       -0.74855        0.52308
B         -1.49677       -2.23462        0.41199
B          3.91572       -2.22599       -0.20148
B         -0.06964       -4.30690       -0.96510
B         -2.77402       -3.23675       -0.23297
B         -3.09453       -1.81172        0.49546
B         -4.39668       -0.90424       -0.05454
B         -0.37485        1.87919        0.97745
B         -1.85294        2.57070        0.48876
B         -3.23777        1.68004        0.42284
B         -4.65314        0.69734        0.20404
B         -4.54929        2.30754       -0.53842
B         -3.21733        3.20372       -0.25808
B         -1.79117        4.02600       -0.51014
B         -0.39684        3.46292        0.27816
B         -0.41507        4.56153       -0.84616
B          2.38880        3.21034       -0.47428
B          1.02940        4.01357       -0.61282
B          2.47790        1.66219        0.42779
B          3.76268        2.44463       -0.32950
B          3.92491        0.94081        0.39557
B          1.08198        2.60034        0.34926
B          1.29482       -2.01154       -0.24124
B         -3.22193        0.00573        0.76488
B          0.93350        1.04398        0.84642
B         -4.25664       -2.53362       -0.53608
B          5.29399       -1.48534       -0.36641
B          5.40859        0.11965        0.22648
B          5.22447        1.70396       -0.47522
B          6.41737        0.87029       -0.93592
B          6.41320       -0.58628       -0.93735
B         -1.80405        0.88369        0.93515
B          1.18212       -1.98342        1.53328
B         -0.27405       -1.76967        1.43681
B         -5.60236       -1.77031       -0.68148
B         -5.74122       -0.24133       -0.91479
B         -5.66351        1.31971       -0.89399
B         -0.25984       -1.10314       -0.21050
