45
isomer_1845.log	Energy: -112882.6395130
B         -2.59290        1.69175        0.42342
B         -2.55764        3.33270        0.03027
B         -1.18788        4.14787       -0.19699
B          0.25210        3.34068        0.36062
B         -1.15240        0.82301        0.76396
B          1.69433        0.82746        0.82503
B          1.62536        4.10423       -0.33408
B         -4.00922        0.82807        0.31843
B          1.63127        2.44680        0.26482
B         -3.93754        2.49209       -0.12587
B          0.22527        4.73264       -0.46258
B          3.04084        3.25547       -0.35076
B          3.08529        1.65037        0.20758
B          4.53757        0.81248       -0.28728
B          0.28165       -1.73103        0.88689
B          1.66315       -2.42557        0.25261
B          3.10008       -1.62585        0.21103
B          4.52944       -0.79818       -0.27934
B          4.40594       -2.36858       -0.54879
B          3.06963       -3.23544       -0.35364
B          1.67397       -4.08740       -0.35285
B          0.28171       -3.33521        0.33055
B          0.27738       -4.72587       -0.48985
B         -2.53995       -3.33594       -0.00482
B         -1.14461       -4.15701       -0.23182
B         -2.60038       -1.71026        0.38520
B         -3.95579       -2.49732       -0.17277
B         -4.01724       -0.86781        0.30238
B         -1.17472       -2.55869        0.55277
B         -1.19781        2.54064        0.59077
B          3.18220        0.09131        0.60392
B         -1.16038       -0.83001        0.70022
B          4.39858        2.39478       -0.54838
B         -5.22736        1.70494       -0.65327
B         -5.22921        0.06432       -0.42761
B         -5.22795       -1.71268       -0.66843
B         -6.34333       -0.76482       -1.27161
B         -6.36557        0.74319       -1.27592
B          1.70728       -0.82280        0.81860
B         -1.13657       -0.57535        1.87242
B          0.25956        1.73232        0.92388
B          5.80377        1.60178       -0.74526
B          5.98555       -0.03076       -0.79936
B          5.79624       -1.66501       -0.79691
B          0.25027        0.50265       -0.24713
