45
isomer_1846.log	Energy: -112366.9762173
B          2.62523       -1.66027        0.35113
B          2.61399       -3.29020       -0.06213
B          1.20589       -4.11241       -0.32294
B         -0.24976       -3.28861        0.24280
B          1.16728       -0.77189        0.67371
B         -1.70757       -0.79751        0.75603
B         -1.64096       -4.05722       -0.46300
B          4.08564       -0.78770        0.29655
B         -1.63097       -2.39028        0.16303
B          4.02317       -2.46995       -0.19453
B         -0.21728       -4.72065       -0.61467
B         -3.07120       -3.20731       -0.46142
B         -3.09504       -1.59765        0.13781
B         -4.55274       -0.77210       -0.34352
B         -0.26842        1.75403        0.87559
B         -1.64907        2.46440        0.26247
B         -3.10720        1.66259        0.20458
B         -4.55877        0.84659       -0.31036
B         -4.39677        2.40955       -0.52347
B         -3.09544        3.29556       -0.32823
B         -1.67157        4.15546       -0.29479
B         -0.27458        3.36898        0.37916
B         -0.25290        4.83513       -0.41895
B          2.58903        3.40440        0.07499
B          1.17480        4.22608       -0.15216
B          2.61248        1.75904        0.42117
B          4.00427        2.60078       -0.09067
B          4.07935        0.90035        0.33112
B          1.17914        2.57451        0.59922
B          1.19803       -2.49300        0.49543
B         -3.18445       -0.07594        0.56561
B          1.16124        0.84735        0.70687
B         -4.37912       -2.32376       -0.62042
B          5.34489       -1.65015       -0.68065
B          5.33572       -0.02413       -0.41338
B          5.33199        1.81144       -0.60975
B          6.50142        0.87350       -1.23022
B          6.50721       -0.67889       -1.26201
B         -1.71370        0.84816        0.78974
B          0.35440       -0.20404        0.29245
B         -0.25556       -1.69534        0.80494
B         -5.89016       -1.61408       -0.82152
B         -6.09154        0.09940       -0.85163
B         -5.90021        1.82985       -0.82159
B         -0.24020       -1.88405        2.46760
