45
isomer_0185.log	Energy: -113474.1073757
B         -2.30345        1.97776        0.42850
B         -2.13749        3.50812       -0.17156
B         -0.66969        4.24681       -0.25402
B          0.66346        3.42321        0.42662
B         -0.95013        0.99201        0.92900
B          1.85455        0.78422        0.79791
B          2.13753        4.05648       -0.28813
B         -3.72559        1.14759        0.01540
B          2.05116        2.46118        0.46487
B         -3.58106        2.81589       -0.31859
B          0.76674        4.72701       -0.49471
B          3.43689        3.13211       -0.20266
B          3.41581        1.55260        0.34078
B          4.76179        0.57357        0.09180
B          0.30377       -1.60704        1.20231
B          1.48214       -2.47861        0.39984
B          2.96668       -1.80244        0.17460
B          4.46206       -1.05868       -0.19578
B          4.18677       -2.67581       -0.68685
B          2.73081       -3.33348       -0.31381
B          1.25674       -3.97764       -0.36645
B         -0.17051       -3.22540        0.39984
B         -0.11311       -4.45716       -0.68065
B         -2.84990       -3.14810       -0.58861
B         -1.53424       -4.00923       -0.64955
B         -2.54898       -1.63230        0.55693
B         -3.94965       -2.12139       -0.38817
B         -3.84433       -0.57634        0.16820
B         -1.99410       -3.29846        0.76939
B         -0.83312        2.67959        0.53071
B          3.28895       -0.14617        0.65640
B         -1.01021       -0.61122        1.03414
B          4.72145        2.18886       -0.57493
B         -4.93779        2.06457       -0.72543
B         -5.22431        0.43244       -0.15066
B         -5.29801       -1.23126       -0.53080
B         -6.36235       -0.29213       -1.08689
B         -6.10909        1.17443       -1.28537
B          1.70033       -0.82408        0.91739
B         -2.36359        0.19582        0.53507
B          0.56373        1.77089        0.91107
B          5.68091        1.13918       -1.09995
B          5.78815       -0.40385       -1.07102
B          5.45282       -1.92067       -1.09350
B         -1.16253       -2.21286        1.46732
