45
isomer_1850.log	Energy: -112495.6433259
B          2.61507       -1.60419        0.36050
B          2.62142       -3.23578       -0.04629
B          1.22199       -4.07650       -0.29444
B         -0.24004       -3.26863        0.27780
B          1.14833       -0.73275        0.68935
B         -1.72537       -0.79384        0.79102
B         -1.62619       -4.05732       -0.41565
B          4.06409       -0.71374        0.29272
B         -1.63285       -2.38789        0.20376
B          4.01935       -2.39859       -0.19134
B         -0.19538       -4.70357       -0.57425
B         -3.06689       -3.22529       -0.40782
B         -3.10683       -1.61366        0.18524
B         -4.57787       -0.80826       -0.28955
B         -0.31740        1.77588        0.89094
B         -1.71085        2.46654        0.28429
B         -3.15922        1.64641        0.23932
B         -4.60389        0.81035       -0.26270
B         -4.46282        2.37434       -0.48301
B         -3.17138        3.27726       -0.29995
B         -1.75816        4.15495       -0.27942
B         -0.34701        3.38863        0.38824
B         -0.34893        4.85173       -0.41574
B          2.51385        3.45848        0.06476
B          1.08800        4.26157       -0.15612
B          2.56013        1.81494        0.41722
B          3.93787        2.67189       -0.10722
B          4.03697        0.97422        0.32072
B          1.11794        2.61320        0.60167
B          1.19937       -2.45405        0.51761
B         -3.21237       -0.09149        0.60767
B          1.12231        0.88641        0.71621
B         -4.38676       -2.35874       -0.56152
B          5.32748       -1.56434       -0.68950
B          5.29980        0.06249       -0.42855
B          5.27186        1.89707       -0.63208
B          6.44875        0.97128       -1.25668
B          6.47370       -0.58103       -1.28243
B         -1.75181        0.85175        0.81832
B          1.36275       -1.85030        2.18025
B         -0.26197       -1.67332        0.83372
B         -5.90784       -1.66873       -0.75528
B         -6.13078        0.04197       -0.79075
B         -5.96085        1.77478       -0.76878
B          0.21244       -1.16413       -0.29225
