45
isomer_1852.log	Energy: -113396.4906285
B          2.47103       -1.70812       -0.25131
B          2.30165       -3.28218       -0.40095
B          0.90301       -3.97694       -0.33276
B         -0.39635       -3.23365        0.39440
B          1.85183       -0.42186        0.49405
B         -1.82321       -0.74503        0.84823
B         -1.90267       -4.05587       -0.19156
B          3.86993       -0.98697       -0.04030
B         -1.87433       -2.45163        0.68544
B          3.78022       -2.59690       -0.54196
B         -0.47126       -4.58701       -0.45402
B         -3.24491       -3.27483       -0.02857
B         -3.25121       -1.61962        0.40479
B         -4.64606       -0.71245        0.04376
B         -0.27331        1.89798        1.11802
B         -1.64759        2.61436        0.27652
B         -3.07199        1.76596        0.16021
B         -4.36259        0.85381       -0.49502
B         -4.21457        2.47630       -0.97323
B         -2.86614        3.28605       -0.51654
B         -1.49127        4.15011       -0.44980
B         -0.14399        3.40343        0.47008
B         -0.06464        4.70378       -0.50150
B          2.60963        3.18243        0.01193
B          1.34001        4.10687       -0.16505
B          2.58145        1.49595        0.61218
B          3.93672        2.26492       -0.12558
B          3.95725        0.69625        0.20866
B          1.26370        2.54138        0.79650
B          1.09667       -2.22495        0.47639
B         -3.31346        0.14858        0.62866
B          1.21465        0.90191        1.26074
B         -4.52886       -2.39648       -0.45669
B          5.18867       -1.78732       -0.83776
B          5.21682       -0.19454       -0.28342
B          5.32169        1.47763       -0.53916
B          6.36796        0.60677       -1.21800
B          6.28292       -0.85385       -1.37339
B         -1.77360        0.91095        1.00619
B          0.95557       -0.92960        1.65639
B         -0.34611       -1.78847        1.19728
B         -5.49303       -1.40887       -1.11839
B         -5.65691        0.10040       -1.29889
B         -5.35783        1.61189       -1.42964
B         -0.29552        0.03946        1.27307
