45
isomer_1853.log	Energy: -113474.9568479
B          2.51180        1.66287       -0.52835
B          2.47635        3.32498        0.08989
B          1.09297        4.09280        0.32227
B         -0.33328        3.38945       -0.33797
B          1.14599        0.91512       -0.97534
B         -1.77997        0.88828       -0.96016
B         -1.72488        4.14125        0.40700
B          3.94090        0.94110       -0.28246
B         -1.76945        2.55365       -0.45364
B          3.82433        2.51646        0.13526
B         -0.32567        4.69499        0.58746
B         -3.09324        3.28796        0.32875
B         -3.16032        1.74020       -0.25246
B         -4.50054        0.77558        0.20229
B         -0.17331       -1.62215       -0.47869
B         -1.65298       -2.47676       -0.30410
B         -3.09702       -1.71001       -0.36167
B         -4.57361       -0.86268       -0.17802
B         -4.36686       -2.47525        0.47338
B         -2.99887       -3.32803        0.10202
B         -1.64235       -4.13245        0.15896
B         -0.11668       -3.32804       -0.59940
B         -0.28403       -4.50537        0.58313
B          2.50298       -3.11462        0.41902
B          1.13420       -3.86020        0.51298
B          2.58582       -1.68946       -0.63425
B          3.86713       -2.29758        0.36080
B          3.93567       -0.80107       -0.27998
B          1.33077       -2.73753       -1.08800
B          1.15227        2.60933       -0.61154
B         -3.25988        0.03750       -0.69218
B          1.27377       -0.73683       -0.66378
B         -4.45006        2.45142        0.67790
B          5.22450        1.73633        0.50952
B          5.29258        0.09196        0.07614
B          5.24176       -1.51291        0.61530
B          6.34314       -0.59102        1.17479
B          6.33863        0.88730        1.10622
B         -1.66216       -0.76212       -0.70795
B          1.10277       -2.06797        0.52165
B         -0.34578        1.87357       -1.04788
B         -5.56930        1.50888        1.12499
B         -5.73567       -0.03489        1.04606
B         -5.46157       -1.55711        0.97268
B         -0.24085        0.08304       -1.07064
