45
isomer_1856.log	Energy: -113367.3038233
B          2.50822        1.73265       -0.61218
B          2.46186        3.42156       -0.04134
B          1.09526        4.15784        0.11976
B         -0.34348        3.44730       -0.49892
B          1.06667        1.02755       -1.10000
B         -1.74360        0.91117       -1.04035
B         -1.70429        4.11801        0.32217
B          3.90275        1.05347       -0.27144
B         -1.76784        2.53588       -0.48050
B          3.76130        2.64050        0.11731
B         -0.30583        4.72123        0.44819
B         -3.08260        3.28389        0.28301
B         -3.16787        1.75191       -0.27163
B         -4.40616        0.78120        0.33870
B         -0.25381       -1.41747       -1.04927
B         -1.61283       -2.37762       -0.67914
B         -3.07166       -1.68168       -0.37319
B         -4.51517       -0.84516        0.04539
B         -4.13854       -2.37410        0.77393
B         -2.72634       -3.09776        0.36561
B         -1.29622       -3.85064        0.31092
B         -0.09842       -3.19584       -0.94573
B         -0.04995       -4.69467        0.10210
B          2.24792       -3.00950        0.28308
B          1.33346       -4.17941       -0.29324
B          2.48857       -1.49995       -0.66138
B          3.61231       -2.15337        0.48703
B          3.75639       -0.61555       -0.06620
B          1.36143       -2.51109       -1.28565
B          1.12902        2.63871       -0.81637
B         -3.23362        0.05918       -0.63865
B          1.15945       -0.55922       -0.98842
B         -4.44274        2.46087        0.67821
B          5.12856        1.82644        0.63472
B          5.18250        0.17073        0.28080
B          4.93487       -1.41122        0.92744
B          5.99010       -0.47692        1.57090
B          6.13934        0.98291        1.38522
B         -1.72879       -0.69859       -0.98313
B          0.38644       -3.17953        0.80099
B         -0.36861        1.83839       -1.15379
B         -5.55405        1.53607        1.16469
B         -5.64400       -0.02089        1.23119
B         -5.26203       -1.50569        1.31634
B          0.87204       -1.74160        0.26283
