45
isomer_1857.log	Energy: -113362.7830506
B         -2.22940        1.71132        0.35522
B         -1.93164        3.23155       -0.54412
B         -0.56603        4.00869       -0.51878
B          0.78630        3.40079        0.49229
B         -0.91209        1.19783        1.14903
B          1.84482        0.68681        0.90475
B          2.26113        3.87988       -0.31250
B         -3.78348        1.17304        0.19699
B          2.10838        2.35435        0.59452
B         -3.29921        2.43361       -0.79977
B          0.91880        4.47607       -0.67560
B          3.54264        2.94672       -0.09212
B          3.41784        1.38034        0.39379
B          4.74579        0.30855        0.20827
B         -0.09499       -1.74911        1.18212
B          1.31969       -2.47185        0.19380
B          2.81208       -1.91053        0.11844
B          4.32892       -1.25457       -0.21034
B          3.99206       -2.77271       -0.93232
B          2.44188       -3.30938       -0.70370
B          0.94127       -3.82524       -0.89824
B         -0.20776       -3.17303        0.19001
B         -0.56907       -4.13583       -1.01324
B         -2.90417       -2.70635        0.51267
B         -1.80948       -3.57966       -0.20583
B         -2.89882       -0.94554        0.62831
B         -4.31756       -1.88251        0.41840
B         -4.34450       -0.28566        0.78053
B         -1.52181       -1.71223        0.01308
B         -0.83495        2.74653        0.53577
B          3.25975       -0.34669        0.71348
B         -1.38160       -0.19332        0.65568
B          4.81715        1.97100       -0.37244
B         -4.62192        1.80329       -1.27505
B         -5.24981        0.51536       -0.35414
B         -5.58428       -1.16816       -0.15233
B         -6.42531       -0.28658       -1.13775
B         -5.93592        0.99684       -1.70598
B          1.56261       -0.93950        0.95048
B         -1.40862       -2.70044        1.38929
B          0.62355        1.86660        1.18653
B          5.79612        0.91593       -0.84308
B          5.75520       -0.60891       -0.97473
B          5.28296       -2.08228       -1.20359
B          0.27350        0.03498        1.16222
