45
isomer_1859.log	Energy: -113450.9642216
B          2.70408       -1.45117        0.77339
B          2.77244       -3.08066        0.24855
B          1.67091       -3.73496       -0.67380
B          0.13824       -3.10152        0.13589
B          1.16867       -0.73165        0.44763
B         -1.71737       -0.94256        1.06601
B         -1.18991       -3.60205       -0.95726
B          4.06380       -0.52997        0.63461
B         -1.49237       -2.44808        0.24060
B          4.15564       -2.13355        0.23398
B          0.32389       -3.75458       -1.33220
B         -2.67371       -3.22278       -0.61571
B         -3.01682       -1.83917        0.30090
B         -4.43588       -1.04346       -0.10617
B         -0.44162        1.71798        0.84865
B         -1.97574        2.38349        0.47389
B         -3.38256        1.53007        0.53604
B         -4.78349        0.52433        0.39947
B         -4.72156        2.19595       -0.24548
B         -3.42406        3.09350       -0.08302
B         -2.06231        3.90111       -0.38683
B         -0.58281        3.30878        0.27337
B         -0.68287        4.42716       -0.84225
B          2.22371        3.31847       -0.50581
B          0.81549        3.99974       -0.67642
B          2.41719        1.77352        0.34218
B          3.66218        2.52875       -0.49528
B          3.89202        1.12990        0.40306
B          0.93214        2.48966        0.03000
B          1.47436       -2.07891       -0.48654
B         -3.34753       -0.22601        0.89497
B          1.05365        0.90553        0.67768
B         -4.20660       -2.59247       -0.76319
B          5.40980       -1.32827       -0.17390
B          5.34356        0.38006        0.00596
B          5.11458        1.94693       -0.63306
B          6.39239        1.11299       -0.98570
B          6.49713       -0.36099       -0.83342
B         -1.87809        0.75686        0.89358
B          1.38852       -2.44122        1.25371
B         -0.14463       -1.74344        1.14040
B         -5.48991       -1.85926       -1.00625
B         -5.87328       -0.34572       -0.77158
B         -5.77433        1.16473       -0.69058
B         -0.31695        0.00294        1.00991
