45
isomer_1860.log	Energy: -113580.1404048
B          2.85530       -0.19787       -0.08141
B          3.15700       -1.81680       -0.87211
B          1.80972       -2.61569       -1.18891
B          0.62633       -2.54283        0.02373
B          1.38054       -0.35916        1.01103
B         -1.84562       -0.74205        1.70383
B         -0.85517       -3.33775       -0.55570
B          4.41364       -0.29335        0.99526
B         -0.76379       -2.26691        1.16256
B          3.76986       -1.65578        0.70989
B          0.46282       -3.25921       -1.37768
B         -1.81768       -3.42318        0.68076
B         -2.56552       -2.03032        0.92764
B         -3.50658       -1.57699       -0.49707
B         -1.01533        2.02710        1.48538
B         -2.48318        2.33874        0.50278
B         -3.71284        1.21259        0.43562
B         -4.32481       -0.08816       -0.55547
B         -4.63316        1.47228       -1.15543
B         -3.76101        2.63018       -0.52042
B         -2.49520        3.59183       -0.62719
B         -1.05580        3.30945        0.49215
B         -1.10529        3.97064       -0.98077
B          1.55071        2.50887       -0.61800
B          0.31601        3.38498       -0.74225
B          1.94918        1.27123        0.68476
B          2.85822        1.62019       -0.76139
B          3.75864        1.17425        0.61203
B          0.40629        2.27707        0.50140
B          2.16174       -1.91663        0.58213
B         -3.30118       -0.49296        0.76675
B          0.46038        0.92117        1.49964
B         -2.58695       -3.01398       -0.74100
B          4.56343       -0.98396       -0.69814
B          5.28339        0.59951       -0.08540
B          4.39619        1.63424       -1.10600
B          5.78702        1.34331       -1.57711
B          5.58498       -0.08025       -1.55030
B         -2.42196        0.90834        1.43792
B         -1.06339        0.56592        2.32811
B          0.85852       -1.91561        1.54926
B         -3.54636       -2.50332       -1.78981
B         -4.39142       -1.19215       -1.94055
B         -4.99985        0.25647       -1.95928
B         -0.15782       -0.71345        1.88877
