45
isomer_1863.log	Energy: -112715.7341616
B         -2.55789        1.74022        0.39662
B         -2.53121        3.38016        0.02583
B         -1.11494        4.19840       -0.20100
B          0.32955        3.34952        0.35621
B         -1.10934        0.83305        0.70911
B          1.76474        0.83529        0.81777
B          1.73260        4.12581       -0.31698
B         -4.02395        0.88017        0.30640
B          1.70497        2.44337        0.26556
B         -3.94496        2.57404       -0.14037
B          0.31515        4.80343       -0.46414
B          3.15665        3.26559       -0.32462
B          3.16350        1.64086        0.23291
B          4.61958        0.81727       -0.25658
B          0.30634       -1.70778        0.85834
B          1.68741       -2.41226        0.23939
B          3.15171       -1.62002        0.21534
B          4.61372       -0.80174       -0.26530
B          4.44249       -2.35743       -0.52026
B          3.13313       -3.23855       -0.35967
B          1.70290       -4.08848       -0.36124
B          0.30547       -3.30937        0.32032
B          0.28059       -4.75421       -0.51565
B         -2.55542       -3.31575       -0.01026
B         -1.14509       -4.14172       -0.24595
B         -2.57026       -1.67975        0.37819
B         -3.96330       -2.49769       -0.16770
B         -4.03006       -0.80821        0.29730
B         -1.14447       -2.51012        0.54788
B         -1.12615        2.55838        0.57519
B          3.23810        0.10799        0.62195
B         -1.11520       -0.78651        0.70038
B          4.45961        2.37681       -0.49474
B         -5.26802        1.77685       -0.65936
B         -5.27293        0.14446       -0.43422
B         -5.28054       -1.68541       -0.67802
B         -6.43752       -0.72313       -1.28442
B         -6.43190        0.82956       -1.27605
B          1.75879       -0.81070        0.80890
B         -2.35933       -0.93738        1.68496
B          0.31881        1.74227        0.87693
B          5.96730        1.66141       -0.70063
B          6.15668       -0.05216       -0.77331
B          5.95270       -1.78135       -0.78981
B         -0.27999       -0.06519        0.00479
