45
isomer_1866.log	Energy: -113396.3550689
B         -2.61405       -1.90299       -0.94866
B         -1.80378       -3.02431        1.30358
B         -0.81939       -4.00917        0.62288
B          0.48493       -3.36720       -0.41551
B         -1.10871       -0.93992       -0.92252
B          1.66964       -0.71030       -0.81188
B          1.96178       -3.97409        0.24207
B         -4.07906       -1.29914       -0.55703
B          1.84043       -2.33286       -0.38192
B         -2.93579       -1.98176        0.84637
B          0.61317       -4.60958        0.59635
B          3.28230       -3.06854        0.09381
B          3.23462       -1.50266       -0.40596
B          4.61356       -0.52287       -0.19489
B          0.20409        1.61433       -0.65573
B          1.56767        2.52619       -0.18128
B          3.07135        1.90273       -0.33825
B          4.53108        1.13498       -0.16297
B          4.33775        2.72987        0.50651
B          2.86663        3.45365        0.27877
B          1.42875        4.16498        0.40744
B          0.04535        3.25577       -0.17683
B         -0.04589        4.66130        0.53989
B         -2.78634        3.13907        0.01282
B         -1.41347        4.02230        0.20735
B         -2.64725        1.45665       -0.34652
B         -4.09103        2.35277       -0.16976
B         -4.02792        0.51286       -0.26714
B         -1.32616        2.36688       -0.45452
B         -1.06733       -2.67331       -0.67488
B          3.22528        0.23196       -0.77652
B         -1.17980        0.66650       -0.73237
B          4.62751       -2.15775        0.35244
B         -3.77574       -0.65406        1.14153
B         -5.40758       -0.43024       -0.18781
B         -5.44056        1.53029       -0.06432
B         -6.29361        0.58301        0.70291
B         -4.96092        0.31571        1.39149
B          1.62995        0.88781       -0.71011
B         -2.46580       -0.31001       -0.04581
B          0.36111       -1.70360       -0.90295
B          5.74692       -1.19040        0.71665
B          5.83957        0.35664        0.74960
B          5.51941        1.87785        0.86804
B         -2.41271       -3.37933       -0.09438
