45
isomer_1867.log	Energy: -113402.5737661
B         -2.68369        1.55143        0.70415
B         -2.65432        3.14815        0.06827
B         -1.35055        4.03897       -0.16101
B          0.15575        3.34571        0.33991
B         -1.17223        0.80180        1.12543
B          1.65392        0.82777        0.62346
B          1.44928        4.10875       -0.51187
B         -4.07053        0.68608        0.46210
B          1.58331        2.50154        0.17475
B         -4.03010        2.27139       -0.01802
B          0.01370        4.65515       -0.55889
B          2.89439        3.30903       -0.47451
B          3.06459        1.77267        0.09868
B          4.55630        0.95475       -0.03519
B          0.31301       -1.69988        0.85621
B          1.78612       -2.47292        0.59852
B          3.21036       -1.67067        0.44005
B          4.51239       -0.70748       -0.13047
B          4.48961       -2.38325       -0.50219
B          3.11990       -3.19959       -0.11852
B          1.75841       -4.09847       -0.20167
B          0.35385       -3.29243        0.33616
B          0.37575       -4.68885       -0.44117
B         -2.43374       -3.26806       -0.25472
B         -1.05022       -4.08243       -0.32408
B         -2.55996       -1.63506        0.27954
B         -3.84119       -2.44089       -0.46814
B         -4.01411       -0.96606        0.30446
B         -1.16107       -2.47898        0.33238
B         -1.32519        2.50007        0.68547
B          3.25097        0.09075        0.64028
B         -1.11608       -0.73209        0.61568
B          4.29941        2.51805       -0.80530
B         -5.31384        1.55463       -0.51264
B         -5.32235       -0.12847       -0.32134
B         -5.18621       -1.75524       -0.82892
B         -6.39019       -0.84587       -1.29500
B         -6.43870        0.63881       -1.17046
B          1.72076       -0.75648        1.04817
B          0.27180        0.02749        1.70696
B          0.23842        1.76456        0.94105
B          5.44192        1.60166       -1.19772
B          5.73770        0.07199       -1.05354
B          5.61719       -1.48037       -0.97213
B          0.24549        0.04230       -0.02420
