45
isomer_1868.log	Energy: -113002.6976241
B          2.62700       -1.67803        0.34408
B          2.62838       -3.33357       -0.03394
B          1.26420       -4.17557       -0.27102
B         -0.19178       -3.37733        0.26967
B          1.17537       -0.92427        0.60972
B         -1.68145       -0.84072        0.75773
B         -1.56245       -4.14865       -0.40480
B          4.00252       -0.76344        0.27633
B         -1.59738       -2.48679        0.18318
B          3.96878       -2.42614       -0.17261
B         -0.15688       -4.74597       -0.53348
B         -2.99032       -3.29693       -0.40867
B         -3.05891       -1.68789        0.15093
B         -4.52549       -0.84520       -0.30992
B         -0.38832        1.79119        0.83436
B         -1.73865        2.46975        0.24190
B         -3.13855        1.63702        0.20025
B         -4.54579        0.78071       -0.27888
B         -4.47301        2.36773       -0.53467
B         -3.13476        3.26221       -0.33438
B         -1.74723        4.14162       -0.32060
B         -0.33192        3.39210        0.33960
B         -0.35263        4.76569       -0.44323
B          2.50124        3.42104        0.00856
B          1.09215        4.22277       -0.20126
B          2.59004        1.77502        0.36508
B          3.90744        2.57648       -0.16630
B          3.98410        0.95327        0.28171
B          1.16343        2.62343        0.53614
B          1.25157       -2.58250        0.49547
B         -3.18279       -0.09932        0.56446
B          1.22273        0.87045        0.64193
B         -4.38672       -2.44183       -0.59777
B          5.22658       -1.60397       -0.68629
B          5.19701        0.04498       -0.44704
B          5.16689        1.80474       -0.66387
B          6.28350        0.88276       -1.25818
B          6.34283       -0.60743       -1.28124
B         -1.73427        0.85632        0.77937
B          1.12901       -0.86461        2.42739
B         -0.21996       -1.78277        0.79484
B         -5.75518       -1.62291       -0.74882
B         -5.95367       -0.01835       -0.77595
B         -5.79676        1.57560       -0.75709
B         -0.07988        0.13929        0.52731
