45
isomer_1869.log	Energy: -111550.9752808
B          2.54234        1.77746       -0.50886
B          2.51812        3.40977       -0.10566
B          1.10396        4.21982        0.16033
B         -0.34761        3.37832       -0.38961
B          1.09087        0.87289       -0.81523
B         -1.78461        0.86994       -0.87667
B         -1.74111        4.13775        0.32156
B          4.01160        0.91954       -0.45954
B         -1.71933        2.46708       -0.29415
B          3.93620        2.60415        0.02152
B         -0.32294        4.81597        0.45868
B         -3.16293        3.27393        0.33573
B         -3.17534        1.66038       -0.25328
B         -4.62134        0.82369        0.24382
B         -0.32143       -1.66814       -0.99089
B         -1.69057       -2.38808       -0.36327
B         -3.15603       -1.60018       -0.29971
B         -4.61175       -0.79516        0.22077
B         -4.43289       -2.35509        0.44240
B         -3.12440       -3.22958        0.24314
B         -1.69245       -4.07574        0.20463
B         -0.30816       -3.27992       -0.48440
B         -0.26632       -4.74074        0.32262
B          2.55780       -3.28548       -0.20098
B          1.15337       -4.11948        0.04161
B          2.56261       -1.64218       -0.55754
B          3.96625       -2.46707       -0.05068
B          4.02160       -0.76867       -0.48358
B          1.13607       -2.47270       -0.72003
B          1.10604        2.59531       -0.64788
B         -3.25293        0.13521       -0.67096
B          1.10046       -0.74652       -0.83828
B         -4.46094        2.37868        0.50979
B          5.26939        1.80036        0.50304
B          5.27422        0.17268        0.24595
B          5.28991       -1.66157        0.45375
B          6.45456       -0.70838        1.05980
B          6.44536        0.84416        1.08190
B         -1.77486       -0.77589       -0.90010
B          1.48363       -1.13440        2.76548
B         -0.34187        1.78157       -0.94178
B         -5.96345        1.65557        0.72635
B         -6.14780       -0.05957        0.76858
B         -5.93974       -1.78822        0.74791
B          1.33644       -0.83148       -0.02627
