45
isomer_0187.log	Energy: -113065.5413847
B          2.74876       -1.65677        0.44548
B          2.73594       -3.38167        0.12211
B          1.39591       -4.14652       -0.12414
B         -0.20944       -3.37530        0.34499
B          1.44818       -0.55691        0.61418
B         -1.84343       -0.83652        0.95290
B         -1.54080       -4.06245       -0.42710
B          4.05734       -0.75350        0.32932
B         -1.76068       -2.47705        0.19784
B          4.07299       -2.44318       -0.03806
B         -0.08912       -4.66332       -0.46304
B         -3.00082       -3.25280       -0.49048
B         -3.15860       -1.70209        0.14213
B         -4.56587       -0.84937       -0.35807
B         -0.32213        1.73511        0.91273
B         -1.72808        2.42878        0.34186
B         -3.15382        1.63753        0.26752
B         -4.55066        0.81285       -0.26345
B         -4.46296        2.45113       -0.55226
B         -3.08511        3.22373       -0.27481
B         -1.73049        4.08631       -0.27002
B         -0.33113        3.36833        0.38071
B         -0.34262        4.73016       -0.44801
B          2.49339        3.45304       -0.04575
B          1.10937        4.20119       -0.22093
B          2.57640        1.78515        0.31308
B          3.90273        2.58725       -0.25289
B          4.00668        0.97734        0.26322
B          1.16718        2.62603        0.53237
B          1.42496       -2.62836        0.60592
B         -3.27473       -0.08485        0.61911
B          1.20761        0.95902        0.56599
B         -4.46441       -2.48097       -0.73718
B          5.31311       -1.62139       -0.62176
B          5.24148        0.07387       -0.45738
B          5.17092        1.80389       -0.72593
B          6.34862        0.86047       -1.30567
B          6.41158       -0.65176       -1.26513
B         -1.81467        0.82932        0.90888
B          0.24088        0.37029        1.73348
B         -0.67281       -1.76372        1.20503
B         -5.73547       -1.63194       -0.95954
B         -5.90940        0.00115       -0.92687
B         -5.74100        1.59385       -0.85987
B          0.41422       -1.57533        0.28945
