45
isomer_1870.log	Energy: -113675.8836968
B         -2.56017        1.73231        0.52764
B         -2.50864        3.30472       -0.03821
B         -1.15050        4.14921       -0.11123
B          0.27302        3.40201        0.53679
B         -1.16784        0.85047        1.06868
B          1.72070        0.84290        0.79735
B          1.64734        4.16776       -0.25883
B         -3.98257        0.84869        0.22369
B          1.72873        2.55012        0.43468
B         -3.86654        2.48777       -0.27738
B          0.22637        4.74767       -0.35461
B          3.01264        3.33633       -0.27831
B          3.13155        1.73031        0.22412
B          4.54641        0.88885       -0.15048
B          0.36580       -1.82614        1.11589
B          1.79803       -2.53348        0.48567
B          3.17109       -1.68279        0.25822
B          4.53352       -0.80315       -0.23208
B          4.40315       -2.44698       -0.75079
B          3.08689       -3.28269       -0.26817
B          1.74226       -4.14504       -0.24813
B          0.34635       -3.38569        0.51507
B          0.33522       -4.74582       -0.35308
B         -2.43195       -3.33237       -0.04025
B         -1.05294       -4.15624       -0.12369
B         -2.51223       -1.75843        0.49149
B         -3.81312       -2.53433       -0.29148
B         -3.95777       -0.90668        0.21598
B         -1.12277       -2.58931        0.76705
B         -1.18237        2.57846        0.78847
B          3.29393        0.01421        0.60914
B         -1.13230       -0.84862        1.04596
B          4.33082        2.49597       -0.76982
B         -5.10229        1.65635       -0.84692
B         -5.19573       -0.03981       -0.52290
B         -5.06322       -1.73421       -0.86359
B         -6.08495       -0.80858       -1.61313
B         -6.10325        0.71228       -1.60679
B          1.78149       -0.83104        0.90565
B         -2.60950       -0.01413        0.74570
B          0.31532        1.83127        1.08998
B          5.37886        1.56717       -1.33731
B          5.61988        0.02983       -1.30494
B          5.46853       -1.52165       -1.30385
B          0.34275        0.00250        1.09874
