45
isomer_1871.log	Energy: -112320.3139242
B          2.44712        1.91835       -0.44744
B          2.35951        3.54830       -0.04867
B          0.93164        4.31294        0.20430
B         -0.49109        3.43500       -0.34404
B          1.00810        0.99071       -0.75985
B         -1.84821        0.88094       -0.83212
B         -1.90367        4.14906        0.35676
B          3.96587        1.12397       -0.38150
B         -1.83757        2.48798       -0.25177
B          3.79607        2.79141        0.08590
B         -0.50694        4.85232        0.49132
B         -3.29746        3.24798        0.36786
B         -3.26406        1.63693       -0.21617
B         -4.68660        0.75140        0.26821
B         -0.33708       -1.59235       -0.92788
B         -1.66918       -2.38325       -0.30415
B         -3.14720       -1.63489       -0.25784
B         -4.61970       -0.86869        0.24460
B         -4.41228       -2.43193        0.47592
B         -3.06069       -3.26625        0.28769
B         -1.62365       -4.07042        0.26879
B         -0.26151       -3.24570       -0.40369
B         -0.20681       -4.68442        0.40185
B          2.73528       -3.13513       -0.07735
B          1.22132       -4.06618        0.16094
B          2.69615       -1.46760       -0.45003
B          4.12043       -2.23215        0.06219
B          4.07512       -0.55158       -0.39085
B          1.16581       -2.39737       -0.62494
B          0.98308        2.69604       -0.59319
B         -3.29333        0.09565       -0.63099
B          1.03948       -0.56087       -0.77622
B         -4.58943        2.32321        0.54204
B          5.16718        2.06145        0.57755
B          5.26124        0.43020        0.33058
B          5.37267       -1.37462        0.54567
B          6.46737       -0.36544        1.14390
B          6.38419        1.16372        1.16138
B         -1.79172       -0.76799       -0.85046
B          2.36457       -3.97692        0.58392
B         -0.43728        1.83914       -0.89136
B         -6.03040        1.51519        0.73671
B         -6.15285       -0.16582        0.77215
B         -5.90013       -1.85535        0.75163
B          1.80664       -1.15696       -0.36134
