45
isomer_1872.log	Energy: -113434.9341753
B         -2.54686       -1.57344       -0.50221
B         -2.62235       -3.27535       -0.30319
B         -1.33419       -4.00737       -0.00622
B          0.25807       -3.31429       -0.57335
B         -0.92880       -0.71566       -0.53203
B          1.59967       -0.85279       -0.90315
B          1.50787       -4.03188        0.47285
B         -3.97617       -0.75382       -0.38685
B          1.47116       -2.30333        0.17986
B         -3.95938       -2.39799       -0.01985
B          0.06195       -4.54148        0.45424
B          2.90254       -3.25324        0.54485
B          3.03900       -1.75248       -0.14122
B          4.51567       -0.92518        0.08778
B          0.39502        1.71872       -0.94870
B          1.83179        2.46829       -0.48263
B          3.23689        1.62798       -0.35536
B          4.63229        0.72128       -0.11722
B          4.55784        2.37758        0.45444
B          3.21290        3.23339        0.12622
B          1.87691        4.08799        0.24079
B          0.42580        3.39543       -0.45197
B          0.47760        4.67743        0.48510
B         -2.40901        3.40655        0.14541
B         -0.95361        4.13809        0.25966
B         -2.47582        1.83360       -0.44627
B         -3.78517        2.64477        0.33181
B         -3.94093        1.02199       -0.17946
B         -1.04255        2.60882       -0.51233
B         -1.15801       -2.42527       -0.78672
B          3.21949       -0.10538       -0.67151
B         -1.11196        0.91174       -0.85464
B          4.27588       -2.50212        0.78327
B         -5.22434       -1.58945        0.52407
B         -5.24215        0.13248        0.33415
B         -5.07429        1.78715        0.80030
B         -6.18124        0.81423        1.41610
B         -6.26781       -0.68132        1.26630
B          1.73048        0.79578       -0.80775
B         -2.52332        0.15596       -0.76656
B          0.38056       -1.83014       -1.39373
B          5.53580       -1.64171        1.05821
B          5.78888       -0.12186        0.94792
B          5.64061        1.43702        0.90739
B          0.18327       -1.40070        0.32221
