45
isomer_1873.log	Energy: -113589.3795330
B          1.85012        1.81426       -0.25467
B          1.23098        2.90129        1.04386
B         -0.24573        3.52999        1.03144
B         -1.39074        2.92711       -0.13916
B          0.70732        1.27232       -1.32516
B         -2.00337        0.38538       -1.24436
B         -2.97485        3.24790        0.31538
B          3.36250        1.32335       -0.06383
B         -2.61072        2.01969       -0.94059
B          2.66745        2.26327        1.15494
B         -1.79335        3.87580        1.04789
B         -4.14710        2.24203       -0.23675
B         -3.66161        0.79173       -0.88479
B         -4.74610       -0.47551       -0.82720
B          0.08398       -1.55720       -1.46858
B         -0.67493       -1.34646        0.27089
B         -2.39078       -1.90500        0.00842
B         -4.20585       -1.63910        0.30981
B         -3.06172       -2.62176        1.35660
B         -1.55945       -2.39446        1.34602
B          0.05051       -2.49227        1.41010
B          0.81292       -2.22908       -0.09272
B          1.52425       -2.49004        1.32315
B          3.39323       -2.12827       -1.27960
B          2.60806       -2.03447        0.27123
B          2.85051       -0.40850       -0.84432
B          4.63474       -1.20933       -1.52975
B          4.35847        0.29737       -0.99411
B          1.81424       -1.79889       -1.42991
B          0.25587        2.47741       -0.16140
B         -3.22728       -0.91971       -1.12276
B          1.23565       -0.19153       -1.46526
B         -5.12075        0.99327       -0.02587
B          4.04739        1.58709        1.57279
B          4.97579        0.71161        0.44836
B          5.64541       -0.77803       -0.29359
B          5.36702       -0.75604        1.24096
B          4.91385        0.47192        2.06885
B         -1.54028       -1.26416       -1.37615
B          4.04483       -1.24399        0.25731
B         -0.91921        1.63093       -1.19782
B         -5.57886       -0.40273        0.58367
B         -5.63478       -1.78998        1.22730
B         -4.57196       -2.70729        1.53744
B         -0.37567        0.02008       -0.62806
