45
isomer_1875.log	Energy: -112577.2522075
B         -2.60324       -1.66781       -0.46064
B         -2.60394       -3.30756       -0.08805
B         -1.20199       -4.14571        0.15453
B          0.26031       -3.31818       -0.38813
B         -1.13863       -0.78178       -0.75860
B          1.73612       -0.82522       -0.83681
B          1.64490       -4.11371        0.30060
B         -4.05772       -0.78680       -0.38675
B          1.64751       -2.43167       -0.28376
B         -4.00769       -2.48114        0.06241
B          0.21643       -4.77084        0.43337
B          3.08095       -3.27393        0.32253
B          3.11694       -1.65006       -0.23641
B          4.57939       -0.84683        0.26771
B          0.31474        1.73840       -0.89520
B          1.69913        2.42373       -0.26231
B          3.15161        1.61067       -0.22200
B          4.59660        0.77210        0.27486
B          4.44495        2.33035        0.52654
B          3.15010        3.22993        0.35126
B          1.73223        4.10021        0.33690
B          0.33110        3.34041       -0.35871
B          0.31804        4.78637        0.47560
B         -2.53275        3.38805       -0.05846
B         -1.11332        4.19403        0.19139
B         -2.56688        1.75201       -0.44552
B         -3.95377        2.59036        0.08482
B         -4.03977        0.90150       -0.37929
B         -1.12764        2.56173       -0.60087
B         -1.18153       -2.50654       -0.62326
B          3.21757       -0.11884       -0.62607
B         -1.12141        0.83771       -0.75145
B          4.39462       -2.40367        0.50562
B         -5.32463       -1.66456        0.56661
B         -5.30381       -0.03251        0.33991
B         -5.28782        1.79754        0.58191
B         -6.46480        0.85256        1.17691
B         -6.48130       -0.70006        1.17005
B          1.75361        0.82070       -0.82954
B         -1.47360       -0.97582        0.94829
B          0.27806       -1.71150       -0.91044
B          5.91013       -1.70967        0.72680
B          6.12322        0.00110        0.79988
B          5.94383        1.73304        0.81261
B         -0.05587        0.46193       -1.00880
