45
isomer_1876.log	Energy: -113477.2253253
B          2.52162        1.65565       -0.55748
B          2.48329        3.31684        0.07720
B          1.10693        4.09642        0.29453
B         -0.32373        3.38314       -0.33776
B          1.15740        0.90665       -1.01240
B         -1.77901        0.89372       -0.94854
B         -1.70761        4.14584        0.41829
B          3.94077        0.93521       -0.28944
B         -1.76303        2.55392       -0.45116
B          3.82440        2.51041        0.12255
B         -0.30559        4.69670        0.58243
B         -3.07523        3.28791        0.35101
B         -3.15445        1.74710       -0.23102
B         -4.50458        0.78843        0.19877
B         -0.17983       -1.62178       -0.52052
B         -1.65007       -2.47628       -0.33731
B         -3.11139       -1.70211       -0.38452
B         -4.57879       -0.84957       -0.16634
B         -4.38807       -2.46504        0.45236
B         -3.02172       -3.30762        0.07692
B         -1.64814       -4.12605        0.15732
B         -0.13023       -3.33463       -0.57178
B         -0.29586       -4.52180        0.58490
B          2.49074       -3.11261        0.43790
B          1.12867       -3.86414        0.51546
B          2.57713       -1.70723       -0.62308
B          3.85230       -2.29652        0.38252
B          3.94007       -0.80566       -0.26640
B          1.33987       -2.75663       -1.06061
B          1.16164        2.60515       -0.62132
B         -3.26193        0.04935       -0.68510
B          1.28375       -0.72750       -0.70568
B         -4.42836        2.45110        0.71540
B          5.22109        1.73057        0.51085
B          5.28987        0.08722        0.08685
B          5.23340       -1.51514        0.63010
B          6.33518       -0.59779        1.18948
B          6.32719        0.87884        1.12332
B         -1.66951       -0.75705       -0.74185
B          1.10543       -2.04895        0.53081
B         -0.34774        1.86733       -1.04080
B         -5.56727        1.51759        1.12615
B         -5.73255       -0.02628        1.05241
B         -5.44877       -1.54557        1.00579
B         -0.24728        0.06086       -1.07021
