45
isomer_1877.log	Energy: -110132.8029772
B         -2.63947       -1.68047       -0.38840
B         -2.63891       -3.31763       -0.00458
B         -1.23617       -4.15394        0.23977
B          0.22447       -3.32999       -0.31271
B         -1.17584       -0.79634       -0.69659
B          1.69868       -0.84000       -0.78265
B          1.61112       -4.12062        0.37754
B         -4.09385       -0.79913       -0.31644
B          1.61185       -2.44264       -0.21835
B         -4.04233       -2.49034        0.14419
B          0.18311       -4.77699        0.51886
B          3.04712       -3.28056        0.38963
B          3.08131       -1.66056       -0.18052
B          4.54508       -0.85373        0.31393
B          0.27682        1.72300       -0.85458
B          1.66291        2.41281       -0.23033
B          3.11560        1.60020       -0.18857
B          4.56210        0.76522        0.30993
B          4.41097        2.32514        0.55135
B          3.11551        3.22335        0.37359
B          1.69749        4.09336        0.35727
B          0.29449        3.32866       -0.32914
B          0.28361        4.78030        0.49528
B         -2.56850        3.37803       -0.02110
B         -1.14848        4.18586        0.21919
B         -2.60351        1.73937       -0.39684
B         -3.98901        2.58119        0.13167
B         -4.07610        0.88918       -0.32060
B         -1.16483        2.54817       -0.56181
B         -1.21813       -2.52014       -0.54931
B          3.18064       -0.13203       -0.58095
B         -1.15881        0.82316       -0.70058
B          4.36119       -2.40892        0.56303
B         -5.35795       -1.67048        0.64651
B         -5.33798       -0.04001        0.40856
B         -5.32155        1.79166        0.63797
B         -6.49670        0.85064        1.24277
B         -6.51303       -0.70199        1.24660
B          1.71599        0.80593       -0.78671
B         -0.54542       -1.35597       -1.24458
B          0.24055       -1.72692       -0.84606
B          5.87723       -1.71325        0.77515
B          6.09030       -0.00200        0.83589
B          5.91073        1.72997        0.83726
B          0.52769        1.23944       -1.10454
