45
isomer_1878.log	Energy: -113612.5022592
B          2.94918       -1.50950        1.45461
B          3.06228       -2.75587        0.00477
B          1.78330       -3.80009       -0.00307
B          0.28209       -3.22794        0.66423
B          1.54204       -0.44285        0.97190
B         -1.46272       -0.84840        0.82761
B         -0.99189       -4.16690       -0.18355
B          3.47271       -0.00986        0.84726
B         -1.29235       -2.59012        0.50690
B          4.23238       -1.55675        0.43961
B          0.49318       -4.55008       -0.25005
B         -2.45052       -3.51781       -0.22274
B         -2.79477       -1.94535        0.27727
B         -4.28902       -1.28620       -0.03062
B         -0.43175        1.90582        1.20727
B         -1.88569        2.44598        0.60246
B         -3.15498        1.47786        0.22574
B         -4.39206        0.38271       -0.29316
B         -4.44889        2.05366       -0.74477
B         -3.22750        3.02132       -0.29757
B         -1.97520        4.03961       -0.25988
B         -0.54794        3.44077        0.53168
B         -0.65142        4.76488       -0.38942
B          2.23678        3.60242       -0.09156
B          0.80048        4.31080       -0.14105
B          2.42533        1.99517        0.52730
B          3.53654        2.74385       -0.50804
B          3.95687        1.37700        0.28558
B          1.03232        2.81221        0.74243
B          1.57802       -2.20203        0.84986
B         -3.07472       -0.26040        0.60300
B          1.12891        1.12808        1.15102
B         -3.87239       -2.84687       -0.71272
B          3.91779       -1.83040       -1.19044
B          4.13499       -0.11556       -0.76185
B          4.34427        1.65937       -1.34161
B          4.76889        0.54163       -2.25075
B          4.49081       -0.85769       -2.26542
B         -1.75853        0.77602        1.05233
B          2.54824       -1.09466       -0.32700
B         -0.00600       -1.63960        1.08217
B         -4.97190       -2.00808       -1.30100
B         -5.44063       -0.52720       -1.27029
B         -5.47644        1.01270       -1.25081
B         -0.12008        0.09832        1.23238
