45
isomer_1879.log	Energy: -111852.9003649
B          2.56560        1.72162       -0.49041
B          2.55464        3.35901       -0.10773
B          1.14700        4.18427        0.14588
B         -0.31084        3.34825       -0.39575
B          1.10696        0.82559       -0.78770
B         -1.76835        0.84621       -0.85361
B         -1.69890        4.12829        0.30366
B          4.02746        0.85200       -0.42805
B         -1.69038        2.44991       -0.29105
B          3.96564        2.54309        0.03176
B         -0.27523        4.79616        0.43450
B         -3.12801        3.27678        0.32642
B         -3.15324        1.65614       -0.24237
B         -4.60701        0.83801        0.26291
B         -0.32657       -1.70539       -0.93375
B         -1.70268       -2.40579       -0.29931
B         -3.16150       -1.60479       -0.24792
B         -4.61111       -0.78103        0.26015
B         -4.44581       -2.33951        0.50158
B         -3.14449       -3.22747        0.31535
B         -1.71971       -4.08613        0.28968
B         -0.32771       -3.31075       -0.40709
B         -0.29944       -4.76164        0.41823
B          2.53767       -3.33701       -0.11912
B          1.12588       -4.15598        0.13169
B          2.55694       -1.69840       -0.49623
B          3.95280       -2.52872        0.02313
B          4.02318       -0.83641       -0.43092
B          1.12365       -2.51880       -0.65054
B          1.13649        2.54979       -0.64191
B         -3.24315        0.12657       -0.64103
B          1.10286       -0.79399       -0.79046
B         -4.43382        2.39480        0.50964
B          5.29126        1.73414        0.52540
B          5.28267        0.10339        0.28873
B          5.28249       -1.72818        0.51951
B          6.45430       -0.77736        1.11540
B          6.45824        0.77536        1.11804
B         -1.77252       -0.79981       -0.85642
B          2.17476       -0.21626        1.63046
B         -0.31783        1.74471       -0.92788
B         -5.94272        1.68720        0.73288
B         -6.14167       -0.02566        0.79629
B         -5.94824       -1.75613        0.79760
B          0.30041       -0.54608       -0.43964
