45
isomer_1880.log	Energy: -113162.5912612
B          2.58474       -1.60447        0.88890
B          2.67281       -3.26411        0.16331
B          1.37384       -4.09133       -0.11142
B         -0.14797       -3.36827        0.29264
B          1.16355       -0.69211        0.56611
B         -1.62635       -0.88252        0.77299
B         -1.40948       -4.09448       -0.55000
B          3.76651       -0.70162        0.15845
B         -1.61164       -2.53703        0.31697
B          3.91702       -2.30435       -0.01856
B         -0.02191       -4.68764       -0.57322
B         -2.84841       -3.29219       -0.54943
B         -2.98755       -1.77064        0.03678
B         -4.44459       -0.90266       -0.32924
B         -0.43989        1.76382        1.06329
B         -1.92147        2.46884        0.76728
B         -3.29907        1.60021        0.50415
B         -4.70294        0.69786        0.21536
B         -4.51213        2.32604       -0.41193
B         -3.23796        3.20764        0.08998
B         -1.89900        4.06104       -0.01268
B         -0.41030        3.33884        0.51656
B         -0.53444        4.70069       -0.26633
B          2.34968        3.56786       -0.26199
B          0.90259        4.15672       -0.20463
B          2.41498        1.94662       -0.25295
B          3.73828        2.81307       -0.47640
B          3.74412        1.09061       -0.11617
B          0.98113        2.34868        0.28755
B          1.30242       -2.68642        0.89544
B         -3.22877       -0.11352        0.56244
B          1.58536        0.68726        0.01071
B         -4.18829       -2.48434       -0.97463
B          5.20788       -1.48193       -0.50415
B          4.95098        0.20329       -0.57368
B          5.05267        1.89088       -0.87550
B          6.24040        0.93563       -1.25639
B          6.31610       -0.54961       -1.08696
B         -1.74865        0.72369        0.83712
B          1.23769       -1.34546        1.95990
B         -0.21557       -1.77208        1.01842
B         -5.38524       -1.62948       -1.41014
B         -5.64199       -0.12765       -1.25354
B         -5.43803        1.37938       -1.10701
B          0.39892        0.47525        1.25258
