45
isomer_1883.log	Energy: -113340.6998861
B          2.59178        1.49032       -0.55621
B          2.48326        3.17183        0.09438
B          1.12765        3.92778        0.33973
B         -0.30679        3.24313       -0.23192
B          1.10379        0.64811       -0.84929
B         -1.75601        0.83128       -0.79337
B         -1.68663        4.09597        0.32882
B          4.07458        0.98957       -0.60399
B         -1.75392        2.47174       -0.42228
B          3.87836        2.50065       -0.01693
B         -0.28052        4.60764        0.57128
B         -3.10867        3.30796        0.16983
B         -3.24524        1.76674       -0.34498
B         -4.68170        0.88652       -0.10447
B         -0.35123       -1.59932       -1.05339
B         -1.73634       -2.43125       -0.42688
B         -3.19022       -1.64297       -0.26166
B         -4.65534       -0.76975       -0.03645
B         -4.44285       -2.37683        0.62994
B         -3.06942       -3.16035        0.30812
B         -1.61654       -3.93170        0.42567
B         -0.30458       -3.28136       -0.45612
B         -0.20611       -4.35945        0.73307
B          2.63386       -3.30121       -0.06802
B          1.19687       -3.78414        0.34708
B          2.54989       -1.49444       -0.84474
B          3.64854       -2.20809        0.35404
B          3.93556       -0.67257       -0.37922
B          1.17696       -2.48339       -0.88032
B          1.14161        2.33431       -0.35575
B         -3.29652        0.04432       -0.71086
B          1.13348       -0.82843       -1.54236
B         -4.49678        2.53302        0.49287
B          5.28312        1.85374        0.39264
B          5.28867        0.12998        0.07537
B          4.97702       -1.33264        0.80659
B          6.02234       -0.38654        1.44601
B          6.22682        1.06506        1.18913
B         -1.75839       -0.77036       -0.84241
B          1.87268       -2.04042        0.77727
B         -0.34856        1.60649       -0.77843
B         -5.62300        1.61634        0.95132
B         -5.81395        0.08011        0.96058
B         -5.59387       -1.46322        1.03264
B          0.97632       -0.88419        0.13367
