45
isomer_1885.log	Energy: -113027.7968100
B          2.71090       -1.48012        0.57342
B          2.68566       -3.13847       -0.03894
B          1.39797       -3.92420       -0.22727
B         -0.10502       -3.27681        0.42371
B          1.06064       -0.66376        1.53857
B         -1.72396       -0.81775        0.86893
B         -1.41824       -3.97882       -0.46132
B          4.02779       -0.67800        0.28284
B         -1.64057       -2.43604        0.20208
B          4.00232       -2.30305       -0.33722
B          0.01554       -4.52231       -0.56362
B         -2.88343       -3.23206       -0.50843
B         -3.07921       -1.72794        0.15770
B         -4.48845       -0.90861       -0.24832
B         -0.46586        1.72248        1.03387
B         -1.84472        2.47386        0.41456
B         -3.25537        1.64597        0.23127
B         -4.53942        0.75186       -0.22990
B         -4.59371        2.42335       -0.61869
B         -3.17000        3.17132       -0.32265
B         -1.80545        4.07467       -0.33521
B         -0.44231        3.37287        0.45848
B         -0.39394        4.68285       -0.42948
B          2.38366        3.32914        0.14327
B          1.01986        4.11808       -0.04607
B          2.46964        1.63557        0.58057
B          3.71720        2.54048       -0.20258
B          3.94961        0.98001        0.31928
B          1.05826        2.54007        0.72344
B          1.35426       -2.42762        0.74047
B         -3.25766       -0.05211        0.54242
B          1.00954        0.85724        1.06905
B         -4.37650       -2.55790       -0.76820
B          5.14645       -1.47337       -0.93771
B          5.15323        0.23226       -0.60697
B          4.98402        1.89417       -0.85673
B          6.09640        1.04436       -1.62959
B          6.15848       -0.45847       -1.66115
B         -1.78446        0.81079        0.95406
B          1.57642       -0.40626        0.15784
B         -0.28119       -1.54414        0.87467
B         -5.51262       -1.65028       -1.19942
B         -5.78766       -0.10397       -1.11434
B         -5.67439        1.43305       -1.10461
B          0.54631       -1.97239        2.15791
