45
isomer_1889.log	Energy: -113418.3861470
B          2.67691       -1.59045        0.71743
B          2.69366       -3.18118        0.03458
B          1.34473       -4.08830       -0.07251
B         -0.11757       -3.41400        0.55673
B          1.21787       -0.78998        1.03643
B         -1.49913       -0.82332        0.21669
B         -1.45246       -4.17602       -0.37788
B          4.00268       -0.70887        0.28221
B         -1.54606       -2.58497        0.21267
B          3.96150       -2.28621       -0.12134
B          0.00345       -4.69191       -0.42576
B         -2.83787       -3.37687       -0.43525
B         -2.96982       -1.75614        0.08580
B         -4.44184       -1.00292       -0.14303
B         -0.33504        1.68708        0.78882
B         -1.85829        2.44892        0.60494
B         -3.21849        1.55395        0.56180
B         -4.54488        0.69307        0.00047
B         -4.53594        2.37314       -0.40909
B         -3.20976        3.18826        0.03054
B         -1.88331        4.08326       -0.10166
B         -0.40727        3.30496        0.29815
B         -0.49439        4.72986       -0.38377
B          2.37859        3.33721       -0.29792
B          0.93673        4.13704       -0.32489
B          2.49828        1.72594        0.26402
B          3.79014        2.57528       -0.38641
B          3.90810        0.98315        0.03526
B          1.10704        2.55415        0.38312
B          1.31461       -2.51461        0.66996
B         -3.17600       -0.11884        0.62992
B          1.17983        0.78739        0.67825
B         -4.19016       -2.54705       -0.87928
B          5.34692       -1.46081       -0.49489
B          5.31973        0.19143       -0.14006
B          5.17804        1.79270       -0.77077
B          6.28559        0.88494       -1.30001
B          6.40963       -0.59672       -1.13304
B         -1.69173        0.69450        1.11738
B         -0.27216       -0.10383        1.63399
B         -0.21467       -1.76420        0.94563
B         -5.30036       -1.63217       -1.32805
B         -5.60863       -0.09923       -1.14430
B         -5.54067        1.44049       -1.02510
B         -0.20756        0.14192       -0.08976
