45
isomer_0189.log	Energy: -112223.4320915
B          2.52806        1.76629       -0.54479
B          2.50710        3.39852       -0.14109
B          1.09495        4.20939        0.13299
B         -0.36020        3.36890       -0.40902
B          1.07434        0.86268       -0.84324
B         -1.80145        0.86152       -0.88860
B         -1.74923        4.12902        0.31010
B          3.99704        0.90746       -0.50388
B         -1.73192        2.45848       -0.30610
B          3.92537        2.59201       -0.02203
B         -0.32990        4.80634        0.43944
B         -3.17148        3.26607        0.33203
B         -3.18818        1.65267       -0.25727
B         -4.63189        0.81675        0.24772
B         -0.34048       -1.67744       -1.01158
B         -1.70653       -2.39668       -0.37648
B         -3.17113       -1.60789       -0.30454
B         -4.62343       -0.80210        0.22425
B         -4.44429       -2.36219        0.44452
B         -3.13747       -3.23744        0.23776
B         -1.70628       -4.08447        0.19104
B         -0.32538       -3.28934       -0.50553
B         -0.27992       -4.75037        0.30091
B          2.54211       -3.29673       -0.23814
B          1.13856       -4.12992        0.01211
B          2.54594       -1.65335       -0.59435
B          3.95189       -2.47922       -0.09554
B          4.00587       -0.78075       -0.52835
B          1.11801       -2.48296       -0.74905
B          1.09151        2.58505       -0.67558
B         -3.26904        0.12764       -0.67485
B          1.08280       -0.75672       -0.86671
B         -4.46905        2.37158        0.51314
B          5.26074        1.78728        0.45185
B          5.26312        0.15966        0.19437
B          5.27884       -1.67464        0.40167
B          6.44745       -0.72231        1.00141
B          6.43933        0.83023        1.02391
B         -1.79284       -0.78431       -0.91246
B          1.90713       -0.88522        3.22116
B         -0.35852        1.77228       -0.96157
B         -5.97077        1.64935        0.73794
B         -6.15594       -0.06569        0.78081
B         -5.94906       -1.79447        0.75858
B          1.46423       -0.66496        0.45302
