45
isomer_1890.log	Energy: -112152.7111375
B         -2.60700       -1.64599       -0.54640
B         -2.60582       -3.28945       -0.19057
B         -1.20298       -4.12803        0.04527
B          0.25882       -3.29291       -0.48702
B         -1.14329       -0.75487       -0.83340
B          1.73161       -0.79340       -0.90832
B          1.64368       -4.09345        0.19536
B         -4.06284       -0.76785       -0.46542
B          1.64461       -2.40554       -0.37181
B         -4.01095       -2.46661       -0.03351
B          0.21599       -4.75395        0.31956
B          3.07849       -3.25189        0.22772
B          3.11285       -1.62236       -0.31457
B          4.57349       -0.82222        0.19962
B          0.30662        1.76865       -0.94239
B          1.68920        2.44946       -0.30074
B          3.14280        1.63810       -0.26685
B          4.58836        0.79658        0.22331
B          4.43414        2.35196        0.49068
B          3.13822        3.25142        0.32292
B          1.71912        4.11978        0.31558
B          0.31998        3.36512       -0.38956
B          0.30376        4.80247        0.45945
B         -2.54432        3.40560       -0.09256
B         -1.12638        4.21101        0.16734
B         -2.57559        1.77355       -0.49634
B         -3.96437        2.60446        0.04072
B         -4.04734        0.92031       -0.44071
B         -1.13733        2.58687       -0.64155
B         -1.18388       -2.48098       -0.71573
B          3.21177       -0.08709       -0.68845
B         -1.12842        0.86448       -0.80970
B          4.39066       -2.38167        0.42139
B         -5.32972       -1.65711        0.47729
B         -5.31095       -0.02280        0.26728
B         -5.29792        1.80471        0.52796
B         -6.47429        0.85202        1.11176
B         -6.48855       -0.70047        1.08904
B          1.74673        0.85238       -0.88423
B         -0.71288       -1.59256        2.45741
B          0.27494       -1.68096       -0.99288
B          5.90489       -1.68780        0.65161
B          6.11541        0.02244        0.74242
B          5.93351        1.75390        0.77259
B         -0.52484        0.18471        0.28641
