45
isomer_1891.log	Energy: -113223.2662267
B          2.65611       -1.56144        1.01516
B          2.73640       -3.15999       -0.01266
B          1.48668       -3.94093       -0.49472
B         -0.03547       -3.11992       -0.20812
B          1.13779       -0.52331        0.62428
B         -1.48501       -0.82752        0.79817
B         -1.36682       -4.06402       -0.60408
B          3.93463       -0.63259        0.44738
B         -1.45573       -2.35387        0.05928
B          3.94930       -2.22418        0.06588
B          0.07024       -4.60699       -0.73950
B         -2.79512       -3.25885       -0.48706
B         -2.98077       -1.78923        0.18291
B         -4.38492       -0.93233       -0.17811
B         -0.37252        1.82926        0.88487
B         -1.86902        2.53745        0.50162
B         -3.21116        1.63796        0.39067
B         -4.62217        0.66923        0.20896
B         -4.64132        2.33696       -0.31536
B         -3.27533        3.20036       -0.13012
B         -1.90429        4.08344       -0.34740
B         -0.46797        3.46763        0.35338
B         -0.53167        4.69016       -0.65835
B          2.31727        3.39995       -0.38586
B          0.91860        4.16340       -0.48689
B          2.44927        1.82568        0.35774
B          3.67631        2.58217       -0.44463
B          3.84903        1.09418        0.25217
B          1.02177        2.65546        0.33590
B          1.34735       -2.24803        0.08970
B         -3.11284       -0.07307        0.56054
B          1.00927        1.03432        0.74390
B         -4.28985       -2.58645       -0.59249
B          5.22921       -1.37094       -0.38304
B          5.22053        0.27691       -0.05236
B          5.10593        1.85267       -0.67871
B          6.23210        0.98813       -1.17626
B          6.27701       -0.47949       -1.07888
B         -1.71444        0.80747        0.78198
B          1.32478       -1.72876        1.83893
B         -0.17627       -1.66735        1.47858
B         -5.58051       -1.76482       -0.83736
B         -5.85430       -0.23041       -0.74034
B         -5.73673        1.35163       -0.71269
B         -0.08534       -1.33993       -0.22700
