45
isomer_1892.log	Energy: -112533.4405914
B          2.56209       -1.71643        0.35738
B          2.50344       -3.39033        0.00402
B          1.07800       -4.22053       -0.21033
B         -0.35973       -3.37108        0.34121
B          1.11149       -0.63628        0.71945
B         -1.79124       -0.81627        0.80726
B         -1.76119       -4.12934       -0.33257
B          3.98932       -0.85364        0.28358
B         -1.74304       -2.45259        0.24548
B          3.90644       -2.55292       -0.15896
B         -0.34937       -4.79691       -0.47059
B         -3.17161       -3.26693       -0.34702
B         -3.18470       -1.63493        0.21487
B         -4.63020       -0.78996       -0.26654
B         -0.30815        1.77595        0.86024
B         -1.69843        2.46652        0.24409
B         -3.16063        1.66581        0.21415
B         -4.61391        0.84391       -0.26685
B         -4.45328        2.41109       -0.52559
B         -3.12722        3.28921       -0.35213
B         -1.70694        4.13933       -0.35159
B         -0.30761        3.37324        0.32390
B         -0.28986        4.79262       -0.50089
B          2.54522        3.38236       -0.02391
B          1.13352        4.20384       -0.24232
B          2.57302        1.74883        0.36345
B          3.95198        2.54126       -0.18450
B          4.00493        0.86537        0.28282
B          1.14481        2.58671        0.54304
B          1.10635       -2.60136        0.55446
B         -3.25466       -0.07091        0.61125
B          1.11564        0.88615        0.70357
B         -4.49393       -2.36984       -0.51940
B          5.21828       -1.73621       -0.67824
B          5.22688       -0.09568       -0.44893
B          5.23963        1.71962       -0.68990
B          6.36503        0.75947       -1.28916
B          6.36794       -0.78011       -1.28652
B         -1.77542        0.85372        0.80653
B          2.40862        0.80050        1.62941
B         -0.39393       -1.71022        0.86370
B         -5.95402       -1.60094       -0.71006
B         -6.12289        0.08903       -0.76943
B         -5.92273        1.77470       -0.78049
B          1.02206       -1.37585        0.43207
