45
isomer_1893.log	Energy: -113406.6749610
B          2.46469        1.77882       -0.56180
B          2.31563        3.41818       -0.00730
B          0.95372        4.19497        0.13589
B         -0.48100        3.40221       -0.48597
B          1.08626        0.93654       -1.10151
B         -1.87518        0.81802       -1.03409
B         -1.83236        4.11966        0.30190
B          3.91668        1.07407       -0.32579
B         -1.87831        2.51312       -0.56320
B          3.70547        2.60424        0.21981
B         -0.47036        4.75016        0.40897
B         -3.15017        3.17036        0.34503
B         -3.25320        1.66084       -0.25054
B         -4.50852        0.63916        0.36788
B         -0.28825       -1.72671       -1.10633
B         -1.68076       -2.51903       -0.55959
B         -3.11851       -1.79049       -0.25630
B         -4.57486       -0.99799        0.07363
B         -4.28157       -2.61513        0.71204
B         -2.89934       -3.35723        0.24197
B         -1.49312       -4.12582        0.24132
B         -0.15587       -3.25806       -0.51033
B         -0.06530       -4.64479        0.32689
B          2.64882       -3.09341       -0.08270
B          1.27381       -3.97289        0.09552
B          2.53801       -1.39579       -0.73459
B          4.19122       -2.69995        0.12806
B          3.88155       -0.59192       -0.32798
B          1.25543       -2.38557       -0.79430
B          1.04986        2.66768       -0.71420
B         -3.33392       -0.09000       -0.59706
B          1.11693       -0.64100       -1.18880
B         -4.44323        2.28883        0.82985
B          4.99979        1.85927        0.79735
B          5.13302        0.18438        0.46365
B          5.01185       -1.55416        0.83505
B          6.00659       -0.53633        1.60120
B          6.04973        0.94973        1.53106
B         -1.76328       -0.79790       -0.90157
B          3.23191       -1.62296        0.74491
B         -0.44038        1.88006       -1.13168
B         -5.52079        1.34276        1.37142
B         -5.63919       -0.20043        1.34872
B         -5.32535       -1.72432        1.31554
B         -0.35818        0.08886       -1.20202
