45
isomer_1894.log	Energy: -113506.2084359
B          2.46501        1.73857       -0.52240
B          2.43260        3.39231       -0.04207
B          1.08636        4.15715        0.12538
B         -0.39713        3.39475       -0.40757
B          1.02089        0.87064       -0.86079
B         -1.74324        0.82922       -0.78945
B         -1.75610        4.10423        0.38068
B          3.89062        0.91870       -0.33673
B         -1.78020        2.45803       -0.26341
B          3.83601        2.57634        0.04032
B         -0.33986        4.71142        0.47938
B         -3.13008        3.25330        0.33001
B         -3.21519        1.71363       -0.22678
B         -4.61657        0.80455        0.10796
B         -0.38398       -1.63088       -0.93134
B         -1.77856       -2.45278       -0.44570
B         -3.24021       -1.69446       -0.36484
B         -4.67758       -0.85700       -0.05833
B         -4.52735       -2.47442        0.50840
B         -3.12808       -3.25483        0.15950
B         -1.75601       -4.04803        0.26997
B         -0.32172       -3.30468       -0.46601
B         -0.33334       -4.57976        0.51177
B          2.42372       -3.12039        0.25105
B          1.04387       -3.97942        0.28485
B          2.62740       -1.74687       -1.08796
B          3.82061       -2.43451        0.31885
B          3.90198       -0.86795       -0.45107
B          1.16365       -2.42968       -0.64939
B          1.09290        2.60851       -0.67692
B         -3.29492       -0.00143       -0.62436
B          1.08647       -0.78918       -0.97211
B         -4.52770        2.42827        0.62516
B          5.09130        1.75317        0.56653
B          5.22307        0.04304        0.20905
B          5.12899       -1.63463        0.65273
B          6.16888       -0.68363        1.31625
B          6.11237        0.81705        1.31018
B         -1.74999       -0.78009       -0.80123
B          2.37810       -1.43902        0.60763
B         -0.39476        1.72344       -0.88642
B         -5.71075        1.52410        0.99866
B         -5.88869       -0.03315        0.96246
B         -5.66555       -1.57914        0.97881
B          2.36278       -0.00450       -0.13070
