45
isomer_1896.log	Energy: -113453.0437742
B          2.63474        1.69167       -0.51420
B          2.55400        3.28676        0.13680
B          1.16802        4.13733        0.14425
B         -0.21555        3.37364       -0.51465
B          1.32160        0.84797       -1.04747
B         -1.62631        0.76621       -0.65781
B         -1.63895        4.16590        0.16774
B          3.95261        0.86085       -0.04524
B         -1.67901        2.54860       -0.55056
B          3.85479        2.45320        0.36598
B         -0.21456        4.74384        0.32704
B         -2.99172        3.34242        0.12822
B         -3.10407        1.71241       -0.31648
B         -4.52540        0.86451       -0.09031
B         -0.30171       -1.68041       -0.99221
B         -1.78351       -2.50610       -0.61986
B         -2.76420       -1.49579        0.35211
B         -4.32629       -0.76737        0.38900
B         -4.24311       -2.43896        0.83578
B         -2.96260       -3.25143        0.33852
B         -1.67505       -4.11365        0.15125
B         -0.24775       -3.28356       -0.45223
B         -0.24769       -4.73449        0.18637
B          2.55870       -3.25438       -0.04946
B          1.13210       -4.09034        0.01358
B          2.63266       -1.64996       -0.61214
B          3.91079       -2.44292        0.18398
B          3.94591       -0.82986       -0.06798
B          1.24733       -2.48182       -0.69762
B          1.24864        2.53857       -0.63464
B         -3.17488       -0.02379       -0.64646
B          1.32737       -0.75163       -1.07441
B         -4.30872        2.48704        0.57427
B          5.22862        1.62003        0.80088
B          5.32061        0.01170        0.25277
B          5.24787       -1.66164        0.68042
B          6.30038       -0.77355        1.34160
B          6.31093        0.71961        1.38343
B         -1.89494       -0.87889       -1.34783
B         -1.27332       -0.80190        0.28973
B         -0.23530        1.78321       -0.99650
B         -5.31151        1.49718        1.17300
B         -5.60387        0.00925        1.20272
B         -5.38886       -1.54423        1.27399
B         -0.15883       -0.00519       -0.76536
