45
isomer_1898.log	Energy: -112552.0803899
B         -2.61975        1.71015        0.43182
B         -2.60890        3.35068        0.06288
B         -1.20091        4.18053       -0.17319
B          0.25434        3.34260        0.37248
B         -1.16175        0.81426        0.73267
B          1.71294        0.83942        0.82049
B          1.64620        4.13091       -0.30990
B         -4.07949        0.83848        0.35116
B          1.63628        2.44761        0.27073
B         -4.01731        2.53345       -0.09406
B          0.22234        4.79732       -0.44594
B          3.07701        3.28216       -0.32893
B          3.10092        1.65687        0.22651
B          4.55996        0.84556       -0.27455
B          0.27529       -1.71532        0.86847
B          1.65743       -2.40796        0.23865
B          3.11512       -1.60397        0.20496
B          4.56701       -0.77343       -0.28525
B          4.40640       -2.33014       -0.54089
B          3.10534       -3.22192       -0.37191
B          1.68198       -4.08329       -0.36417
B          0.28335       -3.31622        0.32848
B          0.26397       -4.76022       -0.50908
B         -2.57973       -3.34515        0.01864
B         -1.16458       -4.15951       -0.22829
B         -2.60485       -1.70979        0.40923
B         -3.99522       -2.53822       -0.12757
B         -4.07213       -0.84988        0.34001
B         -1.17127       -2.52890        0.56754
B         -1.19334        2.53955        0.60102
B          3.19062        0.12419        0.61309
B         -1.15469       -0.80529        0.72197
B          4.38577        2.40405       -0.50961
B         -5.33768        1.72630       -0.60444
B         -5.32787        0.09365       -0.38129
B         -5.32260       -1.73593       -0.62731
B         -6.49162       -0.78224       -1.22411
B         -6.49838        0.77043       -1.21385
B          1.72011       -0.80656        0.80962
B         -0.16534        0.31487       -0.71215
B          0.26026        1.73470        0.89126
B          5.89762        1.70101       -0.72731
B          6.10018       -0.01090       -0.80349
B          5.90995       -1.74165       -0.82066
B         -0.26298       -0.95224        1.79627
