45
isomer_1899.log	Energy: -113532.3963438
B         -2.58217        1.61275        0.67448
B         -2.70544        3.30969        0.04186
B         -1.39733        4.21720        0.01994
B          0.14455        3.53878        0.84914
B         -1.22848        1.06382        1.20913
B          1.53751        0.91596        0.63286
B          1.43273        4.28811       -0.23747
B         -3.75985        0.70666        0.01591
B          1.50568        2.67843        0.37745
B         -3.95953        2.34478       -0.15542
B          0.00377        4.73683       -0.27130
B          2.78384        3.45793       -0.39290
B          2.89014        1.84882        0.04936
B          4.23609        0.99997       -0.54290
B          0.40641       -1.94962        1.20444
B          1.88058       -2.46280        0.73762
B          3.20485       -1.61331        0.30592
B          4.50159       -0.60588       -0.14892
B          4.53547       -2.32833       -0.52982
B          3.25341       -3.21092       -0.01493
B          1.95383       -4.14449       -0.07760
B          0.50638       -3.44380        0.40093
B          0.61363       -4.85019       -0.30282
B         -2.26498       -3.53673       -0.06636
B         -0.86942       -4.33655       -0.08234
B         -2.24257       -1.91296        0.23380
B         -3.60188       -2.61460       -0.51469
B         -3.53984       -0.94449       -0.21299
B         -1.01635       -2.83437        0.85197
B         -1.36773        2.75511        0.80008
B          3.12935        0.15206        0.41487
B         -2.10838       -0.24918        0.59189
B          4.09934        2.63994       -0.97450
B         -5.23013        1.47545       -0.60003
B         -4.94691       -0.22112       -0.69240
B         -4.84567       -1.85316       -1.09726
B         -6.03463       -0.95941       -1.60592
B         -6.24043        0.50670       -1.32220
B          1.62096       -0.72769        0.75454
B         -1.00815       -1.07686        1.27125
B          0.22436        1.93266        1.22188
B          5.23169        1.75793       -1.49286
B          5.54966        0.20403       -1.33443
B          5.50553       -1.33480       -1.14669
B          0.19851        0.06766        1.15743
