45
isomer_0019.log	Energy: -112250.7984660
B         -2.54798       -1.68136       -0.41298
B         -2.54215       -3.31872       -0.03006
B         -1.13651       -4.15224        0.20705
B          0.31972       -3.32494       -0.35203
B         -1.08770       -0.79402       -0.72775
B          1.78646       -0.83163       -0.82772
B          1.71134       -4.11306        0.33107
B         -4.00383       -0.80310       -0.33350
B          1.70569       -2.43475       -0.26389
B         -3.94657       -2.49444        0.12594
B          0.28540       -4.77248        0.47893
B          3.14562       -3.27000        0.33669
B          3.17368       -1.64963       -0.23274
B          4.63814       -0.84002        0.25508
B          0.35893        1.72843       -0.89138
B          1.74657        2.42080       -0.27346
B          3.20114        1.61119       -0.23916
B          4.65178        0.77896        0.25189
B          4.49856        2.33844        0.49488
B          3.20039        3.23404        0.32388
B          1.78050        4.10110        0.31489
B          0.37579        3.33384       -0.36515
B          0.36587        4.78501        0.46010
B         -2.48577        3.37708       -0.04326
B         -1.06629        4.18774        0.19061
B         -2.51919        1.73856       -0.41972
B         -3.90386        2.57719        0.11595
B         -3.98962        0.88525       -0.33683
B         -1.08301        2.55044       -0.59120
B         -1.12569       -2.51798       -0.58121
B          3.26789       -0.12068       -0.63280
B         -1.07406        0.82552       -0.73094
B          4.45870       -2.39572        0.50421
B         -5.26144       -1.67759        0.63506
B         -5.24601       -0.04696        0.39792
B         -5.23229        1.78461        0.62824
B         -6.40255        0.84083        1.23820
B         -6.41562       -0.71184        1.24126
B          1.80032        0.81433       -0.83097
B         -3.30319       -0.23852       -0.74763
B          0.32988       -1.72156       -0.88458
B          5.97429       -1.69701        0.70939
B          6.18410        0.01465        0.77003
B          6.00092        1.74624        0.77322
B         -0.58834       -0.06601       -0.03555
