45
isomer_1900.log	Energy: -113468.0473273
B         -2.67264       -1.50175       -0.69707
B         -2.81224       -3.07747        0.63288
B         -1.53201       -3.91140        0.08207
B          0.05197       -3.22687       -0.38814
B         -1.05988       -0.64937       -0.95186
B          1.72452       -0.87174       -0.87393
B          1.28293       -4.03478        0.47654
B         -3.93386       -0.48136       -0.25831
B          1.52400       -2.43575       -0.19325
B         -3.99549       -2.18379        0.21211
B         -0.16983       -4.54841        0.47435
B          2.74812       -3.33780        0.50175
B          3.02659       -1.84570       -0.12824
B          4.50095       -1.06364        0.24064
B          0.56588        1.69102       -0.87454
B          2.07170        2.39948       -0.53309
B          3.45337        1.50924       -0.38392
B          4.81653        0.52257       -0.18421
B          4.78999        2.19570        0.41662
B          3.48992        3.09369        0.07541
B          2.17393        4.02189        0.19314
B          0.69737        3.36029       -0.39370
B          0.81931        4.71349        0.43185
B         -2.09931        3.50853        0.19082
B         -0.62924        4.21943        0.25959
B         -2.32260        2.00357       -0.43066
B         -3.58272        2.84946        0.37295
B         -3.77106        1.22538       -0.08556
B         -0.82875        2.63087       -0.47271
B         -1.27883       -2.39190       -1.04983
B          3.34301       -0.19414       -0.66803
B         -0.93205        0.94088       -0.89862
B          4.20703       -2.64349        0.84630
B         -5.27950       -1.23622        0.55503
B         -5.23120        0.45593        0.25082
B         -4.93586        2.14775        0.78216
B         -6.04297        1.25219        1.40805
B         -6.23104       -0.25549        1.28914
B          1.87625        0.72725       -0.80007
B         -2.71906       -3.13729       -0.93001
B          0.26515       -1.62724       -1.02693
B          5.47355       -1.87453        1.19762
B          5.84851       -0.36531        1.04124
B          5.77281        1.16574        0.94430
B         -2.46327        0.26109       -0.65268
