45
isomer_1901.log	Energy: -113549.1877178
B         -2.06155       -0.96535       -0.47834
B         -1.53364       -2.47712        0.46126
B         -1.01371       -3.89842       -0.36162
B          0.52416       -3.41564       -1.19264
B         -0.95515       -0.96109       -1.76696
B          1.84229       -0.69785       -0.95084
B          1.62960       -3.89728        0.31227
B         -3.64959       -0.67344       -0.15806
B          1.62661       -2.22551       -0.09675
B         -2.80633       -1.68092        0.92692
B          0.31407       -4.59371        0.03457
B          3.00859       -2.99068        0.52788
B          3.13335       -1.46614       -0.06458
B          4.51625       -0.47456        0.22812
B          0.09917        1.65603       -1.14979
B          1.41209        2.54897       -0.53720
B          2.93116        1.98124       -0.33840
B          4.26383        1.16632        0.37611
B          3.96033        2.81454        0.79873
B          2.57788        3.48131        0.23744
B          1.10432        4.16115        0.15859
B         -0.12714        3.18306       -0.57757
B         -0.35517        4.55670        0.22844
B         -2.81474        2.70840        0.03494
B         -1.64112        3.70846        0.05115
B         -2.82693        0.96695       -0.50033
B         -4.20019        2.01677        0.16577
B         -4.51079        0.62979       -0.60372
B         -1.52464        2.11498       -0.75663
B         -1.03984       -2.47100       -1.19724
B          3.27275        0.24840       -0.63676
B         -1.28231        0.50835       -1.25011
B          4.27670       -2.10245        0.98973
B         -4.19236       -1.43296        1.48764
B         -5.20239       -0.40194        0.50905
B         -5.48309        1.29467        0.69835
B         -6.22926        0.26940        1.60446
B         -5.58656       -0.99036        1.98655
B          1.71398        0.94923       -1.12688
B          0.12847       -2.77568        0.45332
B          0.61342       -1.79339       -1.44497
B          5.22362       -1.06422        1.53876
B          5.35438        0.49345        1.50875
B          5.08506        2.02570        1.43829
B          0.42443       -0.03414       -1.56768
