45
isomer_1902.log	Energy: -113522.5093667
B         -1.64881       -1.42964       -0.47348
B         -0.99264       -2.36626        1.39458
B          0.45209       -2.99460        1.15477
B          0.51336       -3.20433       -0.62679
B         -0.30845       -0.66073       -1.31059
B          1.50255       -0.55544       -0.92118
B          2.02969       -3.17156       -1.16740
B         -3.15413       -0.78422       -0.14579
B          1.66846       -1.93834        0.22490
B         -2.44923       -2.31941        0.81286
B          1.89151       -3.53849        0.62031
B          3.20925       -2.88804        0.01006
B          3.03196       -1.18655       -0.32702
B          4.30804       -0.19230        0.10126
B         -0.24116        1.50341       -0.56954
B          1.01624        2.54424       -0.14562
B          2.58113        2.09397       -0.12178
B          4.16495        1.48089       -0.07294
B          3.66188        3.03625        0.72123
B          2.21195        3.62948        0.38748
B          0.66409        4.24151        0.34061
B         -0.52757        3.13713       -0.09047
B         -0.82071        4.63555        0.25382
B         -3.32673        2.76432       -0.23636
B         -2.13361        3.75391       -0.03309
B         -3.02544        0.96584       -0.58347
B         -4.54335        1.79386       -0.31566
B         -4.41427        0.25222       -0.84898
B         -1.81792        2.13505       -0.59137
B         -1.09660       -3.23712       -0.04879
B          2.96168        0.47800       -0.72171
B         -1.46491        0.51152       -0.98750
B          4.49651       -1.85655        0.38366
B         -3.89915       -1.88392        1.19731
B         -4.81695       -0.84582        0.25895
B         -5.67259        0.69397        0.16317
B         -6.14272       -0.31522        1.17624
B         -5.27779       -1.40249        1.70957
B          1.26443        0.96079       -0.53861
B         -0.01062       -1.58724        0.15127
B          0.99599       -1.98177       -1.67388
B          5.51844       -0.84424        0.86374
B          5.42581        0.74864        1.00275
B          4.91260        2.19741        1.12764
B         -0.69724       -2.37369       -1.50418
