45
isomer_1903.log	Energy: -113558.5583757
B          2.49316       -1.73948        0.41657
B          2.34868       -3.22553       -0.34630
B          0.94833       -4.04278       -0.35293
B         -0.43684       -3.40222        0.41964
B         -0.06744       -0.33572        0.27671
B         -1.67469       -0.80584        0.60719
B         -1.86148       -4.08591       -0.28157
B          3.93660       -0.91670        0.17618
B         -1.89672       -2.53258        0.47451
B          3.76626       -2.47827       -0.44430
B         -0.46117       -4.66716       -0.53036
B         -3.26334       -3.22616       -0.17482
B         -3.19489       -1.60840        0.16009
B         -4.58290       -0.69670       -0.19408
B         -0.27010        1.58861        0.31138
B         -1.66461        2.48198        0.28841
B         -3.16733        1.80241        0.30232
B         -4.65696        0.97433        0.22584
B         -4.46573        2.63522       -0.37789
B         -3.04421        3.41147       -0.08838
B         -1.61471        4.23637       -0.19653
B         -0.21944        3.30826        0.15837
B         -0.18101        4.81720       -0.29996
B          2.63635        3.23360       -0.11398
B          1.27523        4.15670       -0.16919
B          2.61149        1.56596        0.23058
B          4.05371        2.38478       -0.08531
B          4.05692        0.79965        0.54094
B          1.20398        2.43621       -0.00678
B          1.04254       -2.52265        0.44371
B         -3.23007        0.06187        0.53079
B          1.12453        0.66167        0.16277
B         -4.65941       -2.36742       -0.50979
B          5.12734       -1.67936       -0.71735
B          5.37698       -0.09565       -0.06370
B          5.42158        1.60715       -0.26335
B          6.56789        0.69161       -0.81671
B          6.38706       -0.76779       -1.09782
B         -1.70282        0.79249        0.45942
B          2.53009       -0.08312        0.91375
B         -0.40093       -1.79342        1.09975
B         -5.83560       -1.43672       -0.78607
B         -5.94608        0.16296       -0.76481
B         -5.62261        1.68920       -0.81248
B          1.21239       -0.99012        1.29553
