45
isomer_1905.log	Energy: -113307.6850442
B         -3.24810       -1.35894       -0.81154
B         -3.40042       -2.85590        0.00372
B         -2.28828       -3.28319        0.94482
B         -0.35121       -2.78140       -0.80575
B         -2.12271       -0.12438       -0.65645
B          1.98184       -1.01974       -1.25980
B          0.77109       -3.48782        0.72297
B         -4.30732       -0.28809       -0.40777
B          1.32676       -2.47260       -0.48614
B         -4.73094       -1.83860       -0.08663
B         -0.74403       -3.55100        0.81325
B          2.28076       -3.20695        0.67205
B          2.94386       -1.94152       -0.18467
B          4.44304       -1.33544        0.33072
B          0.83163        1.47232       -0.90299
B          2.35674        2.19344       -0.67279
B          3.73079        1.30431       -0.52867
B          4.97274        0.20208       -0.09542
B          4.95461        1.93944        0.43831
B          3.79738        2.89456       -0.08380
B          2.48763        3.84698        0.04636
B          0.99991        3.12005       -0.37109
B          1.16362        4.52159        0.34969
B         -1.72544        3.30318        0.33514
B         -0.31878        3.98003        0.30371
B         -2.02956        1.64379       -0.31395
B         -3.15339        2.76528        0.46906
B         -3.53902        1.19711       -0.07910
B         -0.53568        2.37493       -0.35268
B         -1.86814       -1.99821       -0.59009
B          3.57259       -0.44108       -0.82532
B         -0.74823        0.77899       -0.95673
B          3.79732       -2.71025        1.10435
B         -5.79793       -0.76648        0.37466
B         -5.11211        0.82764        0.42311
B         -4.61791        2.34624        0.90939
B         -5.99290        1.79897        1.35506
B         -6.53386        0.41512        1.08786
B          2.16698        0.56695       -0.97025
B         -1.76144       -3.66501       -0.51564
B         -0.69068       -0.87941       -1.13883
B          5.08321       -2.08729        1.58364
B          5.65344       -0.65065        1.34850
B          5.75146        0.85609        1.14875
B          0.55070       -1.60516       -1.66903
