45
isomer_1907.log	Energy: -113459.1031035
B         -2.62306        1.59391        0.59220
B         -2.62090        3.32357        0.10200
B         -1.27917        4.11268       -0.02756
B          0.23220        3.39860        0.63835
B         -1.21555        0.84079        0.79657
B          1.68047        0.85859        0.64123
B          1.59189        4.15980       -0.18961
B         -4.04866        0.84537        0.31619
B          1.65933        2.53837        0.33669
B         -3.93279        2.43988       -0.12053
B          0.14216        4.66359       -0.31842
B          2.99988        3.37481       -0.21176
B          3.08267        1.74598        0.19475
B          4.52338        0.89482       -0.06279
B          0.30181       -1.71651        1.36626
B          1.43916       -2.39225       -0.08507
B          3.07480       -1.69285        0.24089
B          4.43891       -0.74743       -0.27248
B          4.34315       -2.38805       -0.74443
B          3.07931       -3.23359       -0.15948
B          1.81337       -4.07805        0.03389
B          0.33577       -3.33460        1.01060
B          0.40506       -4.10907       -0.46866
B         -2.42320       -3.12422       -0.04111
B         -1.06993       -3.79227       -0.20664
B         -2.61759       -1.52928        0.61596
B         -3.77188       -2.32086       -0.36969
B         -4.03981       -0.86039        0.35809
B         -1.25777       -2.52221        1.08132
B         -1.25316        2.51166        0.53623
B          3.23743        0.02956        0.61211
B         -1.12162       -0.81300        0.56676
B          4.34309        2.55785       -0.64409
B         -5.12130        1.63101       -0.78497
B         -5.30606       -0.01165       -0.37535
B         -5.14036       -1.66912       -0.79460
B         -6.23485       -0.79916       -1.47164
B         -6.13972        0.67706       -1.55505
B          1.69672       -0.86284        0.74631
B          0.29040       -0.00963        1.06568
B          0.27155        1.75372        1.01358
B          5.41313        1.62862       -1.16654
B          5.63217        0.07519       -1.20735
B          5.46868       -1.47575       -1.22445
B         -0.27909       -2.17264       -0.36337
