45
isomer_0191.log	Energy: -113472.5830567
B         -2.60685        1.58390        0.73879
B         -2.60206        3.27109       -0.05501
B         -1.26701        4.06611       -0.28649
B          0.21654        3.36476        0.26178
B         -1.20202        0.86652        1.08478
B          1.71253        0.91431        0.79522
B          1.57243        4.16568       -0.46989
B         -4.01220        0.86332        0.44051
B          1.67317        2.57539        0.40857
B         -3.88510        2.41487       -0.05593
B          0.15068        4.68043       -0.62956
B          2.97914        3.35982       -0.40307
B          3.11357        1.83311        0.21038
B          4.55926        0.92448        0.02335
B          0.27074       -1.61300        0.59006
B          1.73724       -2.45658        0.46514
B          3.13538       -1.66253        0.46241
B          4.37729       -0.71445       -0.22442
B          4.46933       -2.39074       -0.43541
B          3.08229       -3.24368       -0.10677
B          1.75772       -4.09248       -0.18939
B          0.21523       -3.30993        0.52648
B          0.42148       -4.49544       -0.64071
B         -2.35611       -3.09723       -0.51766
B         -0.99013       -3.83376       -0.60975
B         -2.50149       -1.73417        0.57056
B         -3.75064       -2.32719       -0.46707
B         -3.90566       -0.87553        0.24717
B         -1.27203       -2.78228        1.02866
B         -1.23781        2.47053        0.42254
B          3.21351        0.11316        0.61850
B         -1.20876       -0.76189        0.71612
B          4.35495        2.56287       -0.68401
B         -5.28398        1.63291       -0.40698
B         -5.29509       -0.02591       -0.07282
B         -5.14019       -1.58264       -0.72234
B         -6.27198       -0.67704       -1.24997
B         -6.34968        0.78605       -1.08534
B          1.73144       -0.74671        1.08143
B         -0.96292       -2.03328       -0.52806
B          0.27179        1.80237        0.85206
B          5.47971        1.60105       -1.09352
B          5.73455        0.08301       -0.98980
B          5.59760       -1.50038       -0.89203
B          0.27413        0.02111        1.27148
