45
isomer_1911.log	Energy: -113340.9756972
B          2.59287        1.74040       -0.65926
B          2.59086        3.33732       -0.22653
B          1.20731        4.15252       -0.15668
B         -0.23984        3.34706       -0.58900
B          1.18406        0.81483       -1.12264
B         -1.70117        0.81303       -0.82039
B         -1.56613        4.15995        0.17050
B          3.89767        0.84855        0.04761
B         -1.66731        2.49355       -0.45619
B          3.89703        2.52875        0.20428
B         -0.17642        4.75889        0.16476
B         -2.93904        3.32314        0.31555
B         -3.06044        1.74438       -0.10737
B         -4.47183        0.92515        0.40854
B         -0.54942       -1.80756       -1.19206
B         -1.89782       -2.49339       -0.43022
B         -3.29008       -1.64422       -0.20242
B         -4.67259       -0.73849        0.15754
B         -4.43413       -2.29071        0.87459
B         -3.15261       -3.18991        0.41287
B         -1.78928       -4.08111        0.29652
B         -0.43003       -3.37448       -0.51305
B         -0.40291       -4.71114        0.33026
B          2.32013       -3.22800        0.11699
B          0.96827       -4.07371        0.10519
B          2.55410       -1.75444       -0.54805
B          3.73530       -2.48786        0.48158
B          3.85325       -0.89025        0.08647
B          1.10476       -2.54035       -0.84972
B          1.19165        2.53306       -0.86240
B         -3.24586        0.06518       -0.46282
B          1.39496       -0.83348       -1.50846
B         -4.30574        2.58739        0.78634
B          5.06445        1.69657        0.92082
B          5.16553       -0.01734        0.72739
B          5.01273       -1.72145        1.06804
B          6.02312       -0.77318        1.83935
B          6.03023        0.74671        1.80407
B         -1.81403       -0.80627       -0.77157
B          2.54909        0.03695       -0.58642
B         -0.29676        1.67660       -1.04974
B         -5.51129        1.76007        1.27690
B         -5.70570        0.22223        1.35091
B         -5.43378       -1.28381        1.45779
B          0.41684       -1.57116       -2.28988
