45
isomer_1912.log	Energy: -113504.3129858
B         -2.30522        1.80242        0.63122
B         -2.22487        3.46457        0.03269
B         -0.85183        4.22129       -0.11645
B          0.57815        3.45699        0.46009
B         -1.02244        1.09921        1.31255
B          1.86766        0.86165        0.91872
B          1.93950        4.09258       -0.35980
B         -3.49637        0.94682        0.02790
B          1.92050        2.47716        0.44381
B         -3.58437        2.64565       -0.10327
B          0.58798        4.75342       -0.47608
B          3.24878        3.14415       -0.40510
B          3.31603        1.62299        0.16979
B          4.56861        0.57197       -0.33188
B          0.45358       -1.62542        1.61930
B          1.64341       -2.51528        0.83835
B          2.97576       -1.78181        0.31750
B          4.41699       -1.07080       -0.20880
B          4.09795       -2.69474       -0.66442
B          2.70959       -3.36911       -0.10499
B          1.20726       -3.94445       -0.01747
B          0.06486       -3.10354        0.91409
B         -0.29882       -4.35171       -0.13191
B         -2.89295       -3.43439       -0.60654
B         -1.80248       -4.44087       -0.59965
B         -2.49980       -1.73996        0.21810
B         -3.95578       -2.25463       -0.62945
B         -3.65973       -0.70344       -0.18682
B         -1.49060       -3.10193        0.23944
B         -0.93353        2.73662        0.76199
B          3.25974       -0.08337        0.56947
B         -0.02924       -0.10713        1.32090
B          4.46664        2.20202       -0.95078
B         -4.93251        2.00426       -0.55514
B         -4.94383        0.32267       -0.53956
B         -5.16960       -1.32822       -0.88844
B         -6.26783       -0.26097       -1.25054
B         -6.14441        1.22293       -1.12156
B          1.66625       -0.74814        1.05356
B         -2.04272       -0.04850        0.59983
B          0.52380        1.79215        1.06933
B          5.44956        1.16279       -1.52177
B          5.51377       -0.38267       -1.42846
B          5.20132       -1.91193       -1.30663
B         -1.12876       -1.60131        0.98687
