45
isomer_1913.log	Energy: -111998.5184088
B         -2.59809        1.75756        0.40240
B         -2.57775        3.40290        0.05594
B         -1.16482        4.22872       -0.16418
B          0.28437        3.37604        0.37474
B         -1.14563        0.85025        0.69574
B          1.72884        0.85960        0.79328
B          1.68244        4.16651       -0.29226
B         -4.06193        0.89450        0.30508
B          1.66211        2.47552        0.26529
B         -3.98973        2.59505       -0.11675
B          0.26241        4.84194       -0.42383
B          3.10901        3.31083       -0.31822
B          3.12289        1.67802        0.21505
B          4.57948        0.86621       -0.29228
B          0.27818       -1.68821        0.80166
B          1.65891       -2.37921        0.16696
B          3.12074       -1.58226        0.14901
B          4.57841       -0.75249       -0.32507
B          4.41082       -2.30473       -0.60247
B          3.10473       -3.19212       -0.44993
B          1.67704       -4.04627       -0.45861
B          0.27998       -3.28162        0.23989
B          0.25612       -4.71394       -0.61738
B         -2.58216       -3.29177       -0.07966
B         -1.17031       -4.10986       -0.33307
B         -2.60034       -1.66179        0.33314
B         -3.99307       -2.47574       -0.21945
B         -4.06304       -0.79357        0.27089
B         -1.17144       -2.49025        0.48493
B         -1.16810        2.57732        0.58757
B          3.20358        0.13977        0.58095
B         -1.14670       -0.76901        0.66294
B          4.41394        2.42863       -0.50660
B         -5.31244        1.80166       -0.64241
B         -5.31160        0.16608       -0.44155
B         -5.31472       -1.65997       -0.71252
B         -6.47692       -0.69230       -1.30004
B         -6.47590        0.86010       -1.26860
B          1.72775       -0.78609        0.75995
B         -0.69653       -1.87276        2.70372
B          0.28046        1.76120        0.87153
B          5.92293        1.72096       -0.72895
B          6.11713        0.00924       -0.82784
B          5.91824       -1.72012       -0.86928
B         -0.35932       -0.50450        0.27032
