45
isomer_1914.log	Energy: -113456.0013035
B          2.23195       -1.18834        0.46906
B          2.21690       -2.68821       -0.76681
B          0.88711       -3.42273       -1.16050
B         -0.50116       -3.34604       -0.04269
B          0.87554       -1.15903        1.40078
B         -1.83774       -0.88711        1.25512
B         -1.94027       -3.60275       -1.01938
B          3.84406       -0.62744        0.36251
B         -1.93076       -2.46686        0.28533
B          3.56319       -2.05774       -0.40137
B         -0.54276       -3.89416       -1.53221
B         -3.31359       -2.94438       -0.49885
B         -3.24177       -1.50853        0.31101
B         -4.53638       -0.47875       -0.06939
B         -0.06107        1.48351        0.62093
B         -1.46099        2.42417        0.17036
B         -2.97704        1.88746        0.44483
B         -4.53497        1.17604        0.25877
B         -4.21982        2.76237       -0.41143
B         -2.73592        3.36960       -0.30489
B         -1.23025        3.95132       -0.59055
B          0.12786        3.04189        0.04875
B          0.21116        4.23729       -0.97857
B          2.85079        2.63088       -0.63802
B          1.56806        3.47011       -0.77462
B          2.87245        0.94170        0.34861
B          4.18247        2.03553       -0.30401
B          4.43534        0.92800        0.81777
B          1.47670        1.87893       -0.07686
B          0.97068       -2.40239        0.17505
B         -3.21069        0.16749        0.76463
B          1.32923        0.35971        0.60569
B         -4.69900       -2.08065       -0.56686
B          5.06064       -1.63892       -0.45846
B          5.52974       -0.19217        0.29935
B          5.72577        1.43011       -0.13802
B          6.75808        0.45226       -0.65818
B          6.39276       -0.96432       -0.85739
B         -1.63903        0.81982        0.75511
B         -0.61525       -1.15249        2.35895
B         -0.48914       -2.24050        1.19151
B         -5.82692       -1.09904       -0.77705
B         -5.84455        0.47133       -0.71860
B         -5.47067        1.97048       -0.76310
B         -0.25072        0.15257        1.56371
