45
isomer_1916.log	Energy: -113420.1757262
B          2.67611       -1.59063        0.73032
B          2.70435       -3.20224        0.08321
B          1.36073       -4.10353       -0.02025
B         -0.12328       -3.42431        0.59054
B          1.21747       -0.78242        1.01095
B         -1.47590       -0.81220        0.13578
B         -1.43701       -4.18077       -0.39886
B          3.99010       -0.69923        0.29355
B         -1.51865       -2.58810        0.15991
B          3.95970       -2.28159       -0.10404
B          0.01999       -4.69325       -0.40477
B         -2.81183       -3.37248       -0.50885
B         -2.92133       -1.73216       -0.08907
B         -4.44260       -1.02364       -0.07915
B         -0.33155        1.69255        0.79314
B         -1.85435        2.44109        0.58296
B         -3.19980        1.54456        0.52361
B         -4.54282        0.66899        0.02036
B         -4.57133        2.36852       -0.35097
B         -3.21865        3.17611        0.01469
B         -1.88941        4.07322       -0.13305
B         -0.41527        3.29782        0.26358
B         -0.50226        4.72199       -0.40957
B          2.37707        3.34935       -0.29395
B          0.93593        4.13313       -0.33927
B          2.51240        1.74556        0.29363
B          3.79668        2.58992       -0.37644
B          3.90077        0.99130        0.03378
B          1.10869        2.55882        0.38932
B          1.31236       -2.51457        0.65910
B         -3.15012       -0.12505        0.59423
B          1.18980        0.80762        0.72302
B         -4.19222       -2.54660       -0.90026
B          5.34339       -1.45516       -0.47804
B          5.31316        0.19832       -0.14624
B          5.17448        1.80133       -0.77538
B          6.27676        0.88480       -1.30511
B          6.41144       -0.59630       -1.11665
B         -1.68991        0.69177        1.10109
B         -0.17848        0.16571       -0.09990
B         -0.21967       -1.76059        0.92007
B         -5.32928       -1.63017       -1.26355
B         -5.66693       -0.10855       -1.04178
B         -5.61919        1.43388       -0.89772
B         -0.27954       -0.11279        1.61604
