45
isomer_1918.log	Energy: -113434.6959884
B          2.66877       -1.58030        0.36008
B          2.59503       -3.26209       -0.08284
B          1.21543       -4.10168       -0.18011
B         -0.24188       -3.26461        0.20235
B          1.21072       -0.69460        0.59669
B         -1.69306       -0.75636        1.08411
B         -1.62366       -4.18635       -0.11773
B          4.10123       -0.87429        0.41018
B         -1.68566       -2.49273        0.51826
B          3.99442       -2.41747       -0.25537
B         -0.20833       -4.77074       -0.26937
B         -3.00948       -3.29948       -0.11623
B         -3.12095       -1.75468        0.40401
B         -4.40432       -0.83330       -0.26164
B         -0.35469        1.73400        0.93764
B         -1.70035        2.50524        0.27497
B         -3.07112        1.69250       -0.06155
B         -4.53985        0.82491       -0.01438
B         -4.42306        2.46917       -0.71000
B         -3.05047        3.30204       -0.37333
B         -1.64069        4.14491       -0.34779
B         -0.30889        3.37700        0.49213
B         -0.22732        4.72001       -0.36824
B          2.51881        3.23873        0.05873
B          1.16583        4.11658       -0.04608
B          2.60297        1.63231        0.67715
B          3.87772        2.36338       -0.14762
B          4.01955        0.80051        0.41894
B          1.21152        2.55795        0.68092
B          1.27486       -2.45378        0.33078
B         -3.13147        0.00810        0.47095
B          1.13023        0.83945        1.03661
B         -4.42571       -2.53118       -0.45764
B          5.28862       -1.67157       -0.69134
B          5.31242        0.00555       -0.33757
B          5.15122        1.65696       -0.68004
B          6.30304        0.76837       -1.33285
B          6.39258       -0.71850       -1.29532
B         -1.56583        0.74811        0.09562
B         -0.32708        0.07724        1.58123
B         -0.25480       -1.63899        0.63079
B         -5.58989       -1.64406       -0.90477
B         -5.74427       -0.07641       -0.98022
B         -5.51481        1.48266       -1.07544
B         -0.17731       -0.04251       -0.15468
