45
isomer_0192.log	Energy: -112741.5079346
B         -2.62987        1.70777        0.39813
B         -2.62221        3.34373        0.00931
B         -1.21578        4.17376       -0.23521
B          0.24068        3.34576        0.32226
B         -1.17025        0.81883        0.71151
B          1.70426        0.85144        0.80232
B          1.63159        4.12881       -0.36804
B         -4.08759        0.83195        0.32639
B          1.62470        2.45267        0.23298
B         -4.02863        2.52152       -0.13931
B          0.20642        4.79036       -0.51379
B          3.06429        3.28306       -0.37513
B          3.09113        1.66470        0.20004
B          4.55254        0.85060       -0.28946
B          0.27219       -1.70571        0.87967
B          1.65660       -2.40288        0.25989
B          3.11255       -1.59613        0.21811
B          4.56318       -0.76838       -0.28048
B          4.40630       -2.32843       -0.51738
B          3.10701       -3.22098       -0.33908
B          1.68555       -4.08535       -0.32251
B          0.28442       -3.31303        0.35917
B          0.26921       -4.76713       -0.46082
B         -2.57822       -3.35208        0.04642
B         -1.16099       -4.16622       -0.18898
B         -2.60741       -1.71215        0.41709
B         -3.99532       -2.55012       -0.11120
B         -4.07650       -0.85640        0.33575
B         -1.17221       -2.52609        0.58698
B         -1.20550        2.54233        0.55888
B          3.18376        0.13702        0.60530
B         -1.15962       -0.80070        0.72048
B          4.37520        2.40573       -0.54362
B         -5.34662        1.70531       -0.64136
B         -5.33348        0.07551       -0.39840
B         -5.32388       -1.75690       -0.62217
B         -6.49429       -0.81313       -1.23184
B         -6.50449        0.73954       -1.24045
B          1.71508       -0.79453        0.81144
B         -0.42509        0.35706        1.96728
B          0.24953        1.74429        0.86054
B          5.88884        1.70346       -0.75104
B          6.09527       -0.00880       -0.80619
B          5.90887       -1.74004       -0.80256
B          0.24881       -0.91005       -0.45089
