45
isomer_1920.log	Energy: -113248.4259239
B         -2.47994        1.80312        0.56107
B         -2.39663        3.41620       -0.02857
B         -0.95177        4.21564       -0.16841
B          0.41785        3.44269        0.44914
B         -1.09779        0.98325        0.97384
B          1.70265        0.90075        0.93388
B          1.88557        4.09928       -0.32252
B         -3.93042        1.07214        0.23384
B          1.87629        2.53106        0.37716
B         -3.73038        2.65626       -0.17225
B          0.47863        4.72405       -0.48631
B          3.23022        3.22625       -0.29842
B          3.25828        1.65808        0.30376
B          4.54790        0.74858       -0.19381
B          0.02834       -1.74745        0.81128
B          1.55182       -2.41804        0.20403
B          2.99345       -1.69801        0.24954
B          4.45876       -0.95067       -0.19126
B          4.36371       -2.55683       -0.65975
B          2.89594       -3.22679       -0.41880
B          1.48199       -3.98940       -0.47273
B          0.07487       -3.22745       -0.00980
B         -0.00540       -4.67629       -0.52042
B         -2.80780       -3.14880       -0.08276
B         -1.43934       -4.03245       -0.27401
B         -2.74619       -1.42677        0.48960
B         -4.11706       -2.22885       -0.17798
B         -4.07933       -0.64819        0.25033
B         -1.47665       -2.38734        0.50064
B         -1.04106        2.66391        0.64255
B          3.26006       -0.01647        0.55915
B         -1.40855       -0.53865        0.83575
B          4.63048        2.38943       -0.60754
B         -5.11489        1.91134       -0.71082
B         -5.20602        0.29370       -0.41124
B         -5.41072       -1.39014       -0.69063
B         -6.34953       -0.42713       -1.39426
B         -6.20305        1.07175       -1.43545
B          1.68688       -0.77507        0.82248
B         -0.65812       -3.59852        1.36864
B          0.39963        1.81797        1.01500
B          5.73215        1.41567       -1.03322
B          5.83076       -0.15151       -1.02261
B          5.57404       -1.70333       -1.03687
B          0.29037       -0.07702        1.23875
