45
isomer_1923.log	Energy: -113343.8145557
B         -3.12106       -0.56158       -0.67320
B         -3.01916       -2.55497       -0.33338
B         -1.94551       -3.77890        0.03328
B         -0.28266       -3.40638       -0.56261
B         -1.32378       -0.05386       -1.19979
B          1.49837       -0.96035       -0.88767
B          0.77335       -4.05188        0.55053
B         -4.57092       -0.17112       -0.53338
B          1.13365       -2.47898       -0.31879
B         -4.39338       -1.71836       -0.04774
B         -0.69031       -4.48142        0.59564
B          2.23873       -3.44551        0.53470
B          2.69420       -2.03763       -0.13953
B          4.24025       -1.43790        0.31370
B          0.78360        1.93406       -1.33741
B          2.26975        2.33197       -0.68033
B          3.45711        1.28484       -0.33160
B          4.65423        0.17183        0.18688
B          4.79771        1.82748        0.66217
B          3.62501        2.85616        0.17955
B          2.41127        3.90597        0.24954
B          0.96527        3.41236       -0.58541
B          1.09853        4.62244        0.47835
B         -1.72710        3.28108        0.31472
B         -0.35532        4.09589        0.33034
B         -2.09949        1.79341       -0.57078
B         -3.06948        2.52258        0.61252
B         -3.71349        1.19547       -0.16937
B         -0.64616        2.83255       -0.81299
B         -1.68260       -2.94051       -1.34017
B          3.24025       -0.41666       -0.56895
B         -0.82847        1.31322       -1.48039
B          3.71816       -2.87690        1.01832
B         -5.57118       -1.01340        0.71967
B         -5.18418        0.67990        0.67397
B         -4.26922        1.90397        1.41166
B         -5.43301        1.19797        2.16750
B         -6.12092       -0.07970        1.80550
B          1.93495        0.64342       -1.00037
B         -1.84173       -1.48341       -0.90636
B         -0.26089       -1.73674       -1.15636
B          4.97376       -2.21778        1.52204
B          5.53912       -0.77111        1.36582
B          5.72337        0.76752        1.22593
B          0.37937        0.10097       -1.31577
