45
isomer_1924.log	Energy: -113455.5336828
B          2.57895        1.65166       -0.47819
B          2.59012        3.35684       -0.05460
B          1.24299        4.12199        0.18115
B         -0.27094        3.39549       -0.50349
B          1.15786        0.84256       -0.61186
B         -1.75253        0.88728       -0.77432
B         -1.63017        4.10038        0.37869
B          3.97654        0.86307       -0.31188
B         -1.70984        2.53835       -0.26081
B          3.97361        2.49385        0.01454
B         -0.17390        4.60651        0.53294
B         -3.04501        3.31541        0.35979
B         -3.12286        1.74242       -0.14817
B         -4.52057        0.83112        0.18018
B         -0.32692       -1.67773       -1.02354
B         -1.72975       -2.50516       -0.44131
B         -3.21308       -1.69437       -0.28081
B         -4.68165       -0.78730       -0.22775
B         -4.51312       -2.47276        0.42755
B         -3.14914       -3.26591        0.15185
B         -1.69748       -4.00081        0.30351
B         -0.28041       -3.32656       -0.57583
B         -0.29074       -4.22519        0.76950
B          2.60575       -3.31626        0.12643
B          1.13485       -3.67572        0.48279
B          2.62995       -1.70184       -0.91238
B          3.65204       -2.22704        0.45429
B          3.91873       -0.80056       -0.42551
B          1.24486       -2.53811       -0.91953
B          1.20984        2.53126       -0.45258
B         -3.27350        0.02513       -0.65254
B          1.16405       -0.81694       -0.27766
B         -4.45260        2.47836        0.67973
B          5.24946        1.69681        0.49373
B          5.36466        0.01165       -0.01858
B          5.13616       -1.53023        0.58693
B          6.31759       -0.75771        1.14173
B          6.22432        0.70517        1.20266
B         -1.74428       -0.81085       -0.71479
B          1.85653       -1.91964        0.71304
B         -0.29465        1.75612       -0.96066
B         -5.62787        1.58832        1.01646
B         -5.83775        0.01614        0.89480
B         -5.62616       -1.51150        0.84271
B         -0.26397        0.00629       -0.90819
