45
isomer_1928.log	Energy: -113367.3002767
B          2.50940        1.72992       -0.61224
B          2.46315        3.42061       -0.04140
B          1.09716        4.15691        0.11948
B         -0.34217        3.44709       -0.49868
B          1.06761        1.02697       -1.10127
B         -1.74289        0.91161       -1.04002
B         -1.70272        4.11855        0.32171
B          3.90526        1.05356       -0.27430
B         -1.76671        2.53612       -0.48088
B          3.76207        2.63960        0.11668
B         -0.30402        4.72113        0.44817
B         -3.08145        3.28493        0.28246
B         -3.16742        1.75313       -0.27189
B         -4.40578        0.78229        0.33903
B         -0.25443       -1.41876       -1.05029
B         -1.61404       -2.37790       -0.67942
B         -3.07149       -1.68029       -0.37231
B         -4.51536       -0.84414        0.04563
B         -4.13959       -2.37315        0.77391
B         -2.72736       -3.09738        0.36562
B         -1.29732       -3.85068        0.31139
B         -0.09962       -3.19662       -0.94524
B         -0.05076       -4.69491        0.10316
B          2.24710       -3.00975        0.28259
B          1.33249       -4.17948       -0.29312
B          2.48760       -1.50015       -0.66174
B          3.61061       -2.15287        0.48674
B          3.75614       -0.61538       -0.06858
B          1.36034       -2.51167       -1.28613
B          1.13047        2.63755       -0.81542
B         -3.23311        0.06014       -0.63760
B          1.15826       -0.56006       -0.99059
B         -4.44168        2.46233        0.67792
B          5.12918        1.82568        0.63504
B          5.18196        0.16968        0.28278
B          4.93302       -1.41140        0.92813
B          5.98831       -0.47803        1.57318
B          6.13815        0.98180        1.38768
B         -1.72863       -0.69810       -0.98218
B          0.38554       -3.17948        0.80119
B         -0.36769        1.83817       -1.15336
B         -5.55352        1.53774        1.16453
B         -5.64401       -0.01898        1.23140
B         -5.26293       -1.50455        1.31620
B          0.87087       -1.74177        0.26203
