45
isomer_1929.log	Energy: -111496.7668154
B         -2.64744        1.69727        0.43174
B         -2.64426        3.33809        0.06389
B         -1.24028        4.17392       -0.17491
B          0.21970        3.34168        0.36679
B         -1.18504        0.80724        0.72857
B          1.68972        0.84427        0.80970
B          1.60668        4.13621       -0.31829
B         -4.10374        0.81961        0.35389
B          1.60510        2.45250        0.26121
B         -4.04964        2.51512       -0.09033
B          0.17975        4.79680       -0.45056
B          3.04094        3.29341       -0.34125
B          3.07290        1.66787        0.21303
B          4.53411        0.86296       -0.29198
B          0.26279       -1.71645        0.85930
B          1.64632       -2.40292        0.22579
B          3.10058       -1.59287        0.18924
B          4.54786       -0.75598       -0.30379
B          4.39311       -2.31317       -0.56011
B          3.09616       -3.21046       -0.38870
B          1.67641       -4.07773       -0.37822
B          0.27623       -3.31694        0.31821
B          0.26088       -4.76045       -0.52029
B         -2.58742       -3.35754        0.01504
B         -1.16949       -4.16585       -0.23576
B         -2.61841       -1.72256        0.40679
B         -4.00658       -2.55639       -0.12733
B         -4.08941       -0.86870        0.34158
B         -1.18108       -2.53582        0.56119
B         -1.22410        2.53247        0.59817
B          3.16986        0.13531        0.59836
B         -1.17129       -0.81225        0.71675
B          4.35292        2.42087       -0.52557
B         -5.36784        1.70284       -0.59816
B         -5.35074        0.07009       -0.37615
B         -5.33845       -1.75928       -0.62342
B         -6.51280       -0.81006       -1.21684
B         -6.52598        0.74257       -1.20551
B          1.70369       -0.80166        0.79770
B         -0.05970        0.87263       -0.03583
B          0.23350        1.73346        0.88447
B          5.86715        1.72425       -0.74728
B          6.07664        0.01325       -0.82509
B          5.89354       -1.71826       -0.84300
B          0.56719       -1.43932        1.43698
