45
isomer_0193.log	Energy: -112628.7811923
B          2.61369       -1.67972        0.41675
B          2.60460       -3.31953        0.04452
B          1.19747       -4.15067       -0.19208
B         -0.25839       -3.31567        0.35645
B          1.15481       -0.78627        0.72058
B         -1.71977       -0.81523        0.81068
B         -1.64981       -4.10436       -0.32638
B          4.07227       -0.80606        0.33666
B         -1.64153       -2.42222        0.25763
B          4.01186       -2.50021       -0.11192
B         -0.22522       -4.76870       -0.46491
B         -3.08170       -3.25737       -0.34255
B         -3.10720       -1.63323        0.21618
B         -4.56766       -0.82275       -0.28206
B         -0.28529        1.74121        0.86263
B         -1.66881        2.43338        0.23533
B         -3.12552        1.62763        0.20120
B         -4.57676        0.79625       -0.28950
B         -4.41831        2.35366       -0.54214
B         -3.11823        3.24675       -0.37242
B         -1.69596        4.10989       -0.36410
B         -0.29580        3.34318        0.32587
B         -0.27892        4.78889       -0.50880
B          2.56699        3.37634        0.01377
B          1.15061        4.18941       -0.23038
B          2.59448        1.74023        0.40104
B          3.98337        2.57148       -0.13521
B          4.06279        0.88231        0.32891
B          1.16000        2.55722        0.56216
B          1.18847       -2.51126        0.58544
B         -3.19851       -0.10144        0.60591
B          1.14571        0.83327        0.71314
B         -4.39171       -2.38055       -0.52040
B          5.33080       -1.69038       -0.62174
B          5.31912       -0.05819       -0.39531
B          5.31135        1.77187       -0.63764
B          6.48108        0.82086       -1.23730
B          6.48980       -0.73183       -1.23017
B         -1.72902        0.83076        0.80313
B          0.32922       -1.12447       -0.37801
B         -0.26591       -1.70882        0.87848
B         -5.90461       -1.67897       -0.73546
B         -6.10940        0.03283       -0.80803
B         -5.92135        1.76385       -0.82188
B          0.46689        0.55664        1.87194
