45
isomer_1930.log	Energy: -113458.7430743
B         -2.54797        1.66311        0.63505
B         -2.53571        3.38350        0.05383
B         -1.18718        4.14788       -0.01921
B          0.27628        3.43757        0.65674
B         -1.20180        0.93859        1.07104
B          1.74990        0.92376        0.98542
B          1.64996        4.15847       -0.19758
B         -3.90431        0.91397        0.15199
B          1.71126        2.56991        0.47752
B         -3.79587        2.51478       -0.20359
B          0.22636        4.70748       -0.31390
B          3.01759        3.32166       -0.26748
B          3.08812        1.74524        0.22357
B          4.35889        0.78596       -0.40075
B          0.28800       -1.73417        1.45989
B          1.40464       -2.41371        0.04719
B          2.99668       -1.71986        0.10443
B          4.45970       -0.86995       -0.11102
B          4.20460       -2.50421       -0.76721
B          2.86933       -3.28753       -0.30454
B          1.55251       -4.14153       -0.00570
B          0.23159       -3.33201        0.94471
B          0.17860       -4.71892        0.08326
B         -2.52439       -3.31347       -0.04648
B         -1.22792       -4.12599        0.19300
B         -2.56787       -1.60678        0.43777
B         -3.80441       -2.45268       -0.31196
B         -3.89395       -0.85330        0.10162
B         -1.08674       -2.40813        0.26301
B         -1.19928        2.57784        0.74364
B          3.14816       -0.00206        0.49696
B         -1.21775       -0.73855        0.83397
B          4.33624        2.46358       -0.76372
B         -5.09036        1.69180       -0.77407
B         -5.15137        0.03787       -0.45049
B         -5.11764       -1.60749       -0.87109
B         -6.13038       -0.69724       -1.55804
B         -6.12388        0.79926       -1.52389
B          1.57657       -0.75259        0.51444
B          0.24677        0.00417        1.24842
B          0.32719        1.81913        1.21235
B          5.42967        1.53474       -1.27775
B          5.57294       -0.04278       -1.27238
B          5.31058       -1.56490       -1.26661
B          0.09664       -1.25239       -0.23237
