45
isomer_1931.log	Energy: -113465.9350043
B          2.28033        1.86789       -0.15927
B          2.27853        3.56249        0.01995
B          0.86042        4.27237        0.04701
B         -0.51582        3.39485       -0.49718
B          1.13011        0.95395       -0.90286
B         -1.80561        0.80221       -0.98177
B         -1.95565        4.08784        0.15693
B          3.63055        1.11766        0.30313
B         -1.93635        2.47278       -0.58559
B          3.59762        2.76134        0.36704
B         -0.58869        4.78087        0.27501
B         -3.27632        3.15618        0.14074
B         -3.25527        1.54723       -0.33773
B         -4.58930        0.58641        0.09061
B         -0.16587       -1.71409       -1.26130
B         -1.48672       -2.50307       -0.36760
B         -2.96549       -1.81405       -0.23373
B         -4.40130       -1.09098        0.17844
B         -4.04448       -2.61918        0.89089
B         -2.62897       -3.36167        0.44002
B         -1.17892       -3.97399        0.44727
B          0.03926       -3.21788       -0.63111
B          0.35714       -4.38507        0.48688
B          2.80921       -3.14089       -0.59748
B          1.63674       -4.17374       -0.32475
B          2.28158       -1.51377        0.11479
B          3.92701       -2.16554       -0.03670
B          3.68164       -0.60237        0.26071
B          1.43780       -2.35668       -1.25167
B          1.00657        2.67661       -0.74707
B         -3.29341       -0.16518       -0.71084
B          1.26227       -0.63886       -0.92018
B         -4.53012        2.25546        0.62054
B          5.00736        1.97240        0.78144
B          4.82888        0.29457        1.03396
B          5.19811       -1.30387        0.53729
B          6.35267       -0.35656        0.91249
B          6.26147        1.12443        1.03074
B         -1.64343       -0.88718       -0.95204
B          1.33660       -2.76123        0.54192
B         -0.43001        1.82323       -1.12648
B         -5.50832        1.25835        1.22013
B         -5.54297       -0.27954        1.30146
B         -5.17508       -1.78753        1.41412
B         -0.28375        0.04379       -0.98813
