45
isomer_1933.log	Energy: -112155.3279837
B         -2.65212       -1.66572       -0.43811
B         -2.63320       -3.33672       -0.04178
B         -1.23334       -4.23106        0.24173
B          0.29012       -3.38405       -0.32094
B         -1.18723       -0.74601       -0.76071
B          1.75321       -0.77018       -0.83670
B          1.67624       -4.14351        0.38275
B         -4.07541       -0.77942       -0.34801
B          1.70754       -2.41984       -0.24945
B         -4.01724       -2.46195        0.11083
B          0.24790       -4.80647        0.51766
B          3.10996       -3.23764        0.37572
B          3.14030       -1.60619       -0.20419
B          4.57020       -0.74969        0.29055
B          0.26602        1.83177       -0.91811
B          1.65615        2.51154       -0.29583
B          3.11661        1.70166       -0.24019
B          4.56399        0.87062        0.27025
B          4.40617        2.44308        0.51397
B          3.08525        3.32498        0.31231
B          1.66792        4.18924        0.28804
B          0.27041        3.43144       -0.39608
B          0.26574        4.85157        0.41998
B         -2.57885        3.45387       -0.07273
B         -1.16936        4.27135        0.15314
B         -2.62103        1.81464       -0.44933
B         -3.98872        2.61376        0.08976
B         -4.06639        0.94385       -0.35496
B         -1.19617        2.65509       -0.62158
B         -1.25725       -2.53219       -0.59882
B          3.21558       -0.03401       -0.62019
B         -1.17635        0.96031       -0.75774
B          4.43207       -2.33038        0.56380
B         -5.30828       -1.63925        0.62907
B         -5.29658        0.00175        0.38560
B         -5.28452        1.80886        0.60688
B         -6.42224        0.86203        1.22424
B         -6.44515       -0.66580        1.23857
B          1.73637        0.89755       -0.84435
B         -0.61920        0.08588        0.09261
B          0.29375       -1.65189       -0.92026
B          5.88367       -1.55954        0.76718
B          6.05589        0.12281        0.80835
B          5.86075        1.79214        0.79644
B         -0.04319       -2.68831       -0.78934
