45
isomer_1935.log	Energy: -113517.8816061
B         -2.58466       -1.31879       -0.85288
B         -3.88409       -2.61431       -1.13208
B         -2.75778       -2.86129        0.10493
B         -1.05872       -2.43176       -0.49780
B         -0.99791       -0.60054       -1.25866
B          1.65253       -1.20350       -1.19472
B         -0.08091       -3.12531        1.02155
B         -3.65485       -0.15853       -0.04667
B          0.72100       -2.35631       -0.22642
B         -4.24138       -1.80235        0.10051
B         -1.57456       -3.07369        0.97840
B          1.46405       -3.12505        1.05375
B          2.35201       -2.08516        0.07686
B          3.90848       -1.70987        0.66586
B          0.96196        1.48993       -1.10490
B          2.56535        1.95891       -0.86345
B          3.75620        0.84523       -0.54232
B          4.78277       -0.41404        0.02252
B          5.04375        1.33831        0.42660
B          4.07394        2.42469       -0.18754
B          2.93336        3.56536       -0.12144
B          1.36710        3.11774       -0.64116
B          1.71800        4.44104        0.17154
B         -1.32740        3.60426        0.19828
B          0.20248        4.13234        0.11035
B         -1.80584        2.13214       -0.40621
B         -2.82783        3.08623        0.56496
B         -3.29829        1.52068        0.03431
B         -0.26176        2.60722       -0.60769
B         -2.52195       -2.80459       -1.79973
B          3.30262       -0.84882       -0.68227
B         -0.63890        0.95956       -1.07468
B          3.03092       -2.89820        1.49826
B         -4.90064       -0.74843        1.08617
B         -4.61269        0.89607        0.84582
B         -4.16848        2.56762        1.18005
B         -5.27331        1.83367        1.99467
B         -5.56640        0.35172        2.00478
B          2.09768        0.34184       -1.04389
B         -2.20445        0.43514       -0.70962
B          0.19487       -1.69665       -1.73172
B          4.41701       -2.52541        1.94007
B          5.27210       -1.24250        1.58979
B          5.61512        0.19296        1.26486
B         -1.19049       -2.19756       -2.20902
