45
isomer_1936.log	Energy: -113406.1108569
B         -2.51253       -1.55154       -0.83875
B         -2.67240       -3.21992       -0.05527
B         -1.43488       -4.17576        0.06215
B          0.06766       -3.50735       -0.44555
B         -0.81543       -0.44493       -1.18932
B          1.47432       -0.89580       -0.77570
B          1.32277       -4.19007        0.46672
B         -3.72828       -0.63228       -0.10123
B          1.45304       -2.57201       -0.31463
B         -3.84578       -2.26683        0.16151
B         -0.06089       -4.79816        0.48704
B          2.70574       -3.36415        0.51146
B          2.89015       -1.84291       -0.04301
B          4.34681       -1.04536        0.31516
B          0.48137        1.81720       -1.10341
B          1.92514        2.45984       -0.66194
B          3.23314        1.54446       -0.31091
B          4.53439        0.58212        0.16461
B          4.55425        2.26610        0.54507
B          3.31560        3.15127        0.02392
B          2.04254        4.13096        0.05208
B          0.60231        3.49759       -0.60832
B          0.70994        4.83789        0.24947
B         -2.17523        3.58394        0.15707
B         -0.75078        4.32883        0.10055
B         -2.32115        1.98894       -0.40125
B         -3.54911        2.81093        0.49945
B         -3.63874        1.14609        0.11779
B         -0.93398        2.79144       -0.67709
B         -1.40538       -2.95878       -1.10677
B          3.09855       -0.17768       -0.48514
B         -1.02751        1.13532       -1.07967
B          4.05463       -2.60466        0.97571
B         -5.02773       -1.40260        0.78850
B         -4.95952        0.29869        0.64568
B         -4.76836        1.99331        1.09045
B         -5.81928        1.02710        1.78937
B         -5.97040       -0.46626        1.62265
B          1.69090        0.74545       -0.84841
B         -1.31797       -1.67390       -1.98313
B          0.19603       -1.87908       -1.15683
B          5.22222       -1.74757        1.45081
B          5.58294       -0.24610        1.30070
B          5.55982        1.29481        1.15830
B         -2.32893        0.23141       -0.54987
