45
isomer_1937.log	Energy: -113441.9461155
B          2.47314       -1.74426        0.39352
B          2.65746       -3.19561       -0.79834
B          1.38034       -4.10620       -0.81213
B          0.07266       -3.24275        0.39337
B          1.28570       -0.63411        1.02532
B         -1.68357       -0.78715        1.00490
B         -1.38531       -3.97960       -0.24330
B          3.68210       -0.64754       -0.00848
B         -1.55421       -2.48649        0.56529
B          3.73544       -2.13843       -0.65359
B         -0.05523       -4.50028       -0.66278
B         -2.83323       -3.27062       -0.16867
B         -3.02596       -1.74127        0.31481
B         -4.41403       -0.90320       -0.21164
B         -0.39730        1.88236        0.97135
B         -1.84372        2.55224        0.45280
B         -3.20817        1.67846        0.14893
B         -4.64450        0.73292        0.05135
B         -4.49640        2.36607       -0.69387
B         -3.18772        3.24760       -0.36068
B         -1.82728        4.13289       -0.42553
B         -0.43715        3.43017        0.34320
B         -0.44813        4.75502       -0.55808
B          2.37839        3.45142       -0.10581
B          0.98478        4.21932       -0.27309
B          2.45361        1.82320        0.47204
B          3.80099        2.68895       -0.15575
B          3.72981        1.01535       -0.01297
B          1.09178        2.68701        0.57620
B          1.81648       -3.42364        0.59044
B         -3.25332       -0.02429        0.65083
B          1.14962        0.95823        1.03667
B         -4.27004       -2.56044       -0.59316
B          5.16149       -1.31969       -0.68526
B          5.17578        0.23349       -0.08125
B          5.12950        1.93189       -0.50888
B          6.24476        1.00496       -1.06410
B          6.36771       -0.47690       -1.00302
B         -1.77225        0.86270        0.71765
B          1.16836       -2.28597        1.41923
B         -0.27864       -1.65349        1.30353
B         -5.45304       -1.75134       -1.07633
B         -5.70095       -0.20844       -1.09804
B         -5.52194        1.33204       -1.14137
B         -0.24780        0.09543        0.96469
