45
isomer_1938.log	Energy: -113640.7447372
B          2.54116       -1.77867        0.56864
B          2.48000       -3.38340       -0.09340
B          1.11017       -4.18381       -0.23433
B         -0.34608       -3.30696        0.18298
B          2.52936       -0.02273        0.59190
B         -1.75530       -0.79117        0.73648
B         -1.76250       -4.17874       -0.25592
B          3.85689       -0.90766        0.02052
B         -1.78767       -2.49978        0.41096
B          3.87482       -2.58327       -0.22382
B         -0.33818       -4.75499       -0.45019
B         -3.13868       -3.33891       -0.12604
B         -3.19143       -1.68764        0.26072
B         -4.63945       -0.82104        0.08539
B         -0.34445        1.84419        1.02144
B         -1.74398        2.55993        0.41660
B         -3.15055        1.75878        0.23798
B         -4.49286        0.82655       -0.26096
B         -4.38192        2.47470       -0.77853
B         -3.03491        3.30635       -0.37482
B         -1.66599        4.15668       -0.39074
B         -0.30537        3.40070        0.41835
B         -0.24500        4.71413       -0.50721
B          2.52857        3.36009       -0.00680
B          1.15928        4.15601       -0.18342
B          2.51964        1.73945        0.51553
B          3.92317        2.54061       -0.19870
B          3.85329        0.86266        0.00730
B          1.16278        2.60643        0.65650
B          1.11642       -2.54937        0.45817
B         -3.28726        0.05604        0.62826
B          1.13726        0.84935        0.97080
B         -4.46801       -2.49794       -0.50512
B          5.21052       -1.76462       -0.65356
B          5.16451       -0.04202       -0.52422
B          5.22886        1.69502       -0.62697
B          6.38392        0.72211       -1.18150
B          6.37268       -0.81349       -1.19521
B         -1.79103        0.87753        0.97923
B         -0.35659        0.00739        1.18197
B         -0.32932       -1.73690        0.69002
B         -5.51295       -1.53844       -1.04128
B         -5.71345        0.00586       -1.12261
B         -5.51611        1.55676       -1.22289
B          1.14572       -0.89576        1.11849
