45
isomer_1939.log	Energy: -113280.0503435
B         -2.59786        1.47526        0.73854
B         -2.63350        3.20185        0.19749
B         -1.33875        4.04284        0.08693
B          0.14732        3.34838        0.66732
B         -1.20493        0.79648        1.26574
B          1.68097        0.89570        0.65787
B          1.47190        4.16161       -0.27819
B         -4.00926        0.76406        0.22077
B          1.58973        2.56025        0.33470
B         -3.88490        2.35453       -0.04411
B          0.02586        4.64190       -0.27747
B          2.86517        3.40826       -0.41572
B          2.97985        1.77113       -0.05476
B          4.37982        0.94997       -0.51016
B         -0.07516       -1.65420        1.16505
B          1.82665       -2.54986        0.63745
B          3.20062       -1.60818        0.14842
B          4.52430       -0.70097       -0.32270
B          4.46191       -2.39558       -0.64494
B          3.14767       -3.22554       -0.19050
B          1.72414       -4.00891       -0.19022
B          0.27743       -3.23996        0.54136
B          0.29283       -4.53848       -0.36941
B         -2.52894       -3.25196       -0.33056
B         -1.12763       -3.99071       -0.26903
B         -2.70303       -1.64417        0.33587
B         -3.89817       -2.46558       -0.53788
B         -4.07526       -0.93843        0.07289
B         -1.32921       -2.46540        0.50844
B         -1.28442        2.44475        0.85664
B          3.18457        0.11165        0.28646
B         -1.46187       -0.76038        0.95947
B          4.24535        2.64119       -0.87995
B         -5.17098        1.63783       -0.73159
B         -5.22131       -0.01736       -0.59073
B         -5.22352       -1.64960       -1.03493
B         -6.21214       -0.67212       -1.71340
B         -6.17655        0.82485       -1.59937
B          1.76392       -0.81200        0.78318
B          0.38253       -0.02319        1.45398
B          0.29449        1.79025        1.21382
B          5.37395        1.73779       -1.42833
B          5.60682        0.15962       -1.40678
B          5.48714       -1.42993       -1.32801
B          1.22244       -1.67761        2.01633
