45
isomer_0194.log	Energy: -111995.3079097
B          2.51871        1.78320       -0.47982
B          2.48926        3.41540       -0.07655
B          1.07237        4.22162        0.18660
B         -0.37579        3.37625       -0.36639
B          1.07031        0.87474       -0.78925
B         -1.80502        0.86404       -0.85660
B         -1.77280        4.13185        0.34197
B          3.99017        0.92925       -0.42755
B         -1.74525        2.46130       -0.27383
B          3.90924        2.61361        0.05348
B         -0.35675        4.81389        0.48206
B         -3.19231        3.26420        0.35314
B         -3.19916        1.65067       -0.23602
B         -4.64391        0.81004        0.25804
B         -0.33476       -1.67008       -0.96802
B         -1.70324       -2.39375       -0.34327
B         -3.17094       -1.60982       -0.28266
B         -4.62990       -0.80878        0.23488
B         -4.44729       -2.36823        0.45676
B         -3.13604       -3.23917        0.26013
B         -1.70173       -4.08146        0.22449
B         -0.31818       -3.28185       -0.46162
B         -0.27406       -4.74262        0.34537
B          2.54719       -3.27971       -0.17231
B          1.14453       -4.11751        0.06732
B          2.54830       -1.63637       -0.52873
B          3.95312       -2.45751       -0.01905
B          4.00478       -0.75893       -0.45170
B          1.12435       -2.47072       -0.69422
B          1.08050        2.59718       -0.62173
B         -3.27177        0.12534       -0.65398
B          1.08432       -0.74463       -0.81241
B         -4.48825        2.36544        0.52446
B          5.24360        1.81337        0.53768
B          5.25335        0.18574        0.28048
B          5.27355       -1.64848        0.48817
B          6.43438       -0.69220        1.09669
B          6.42095        0.86031        1.11889
B         -1.79078       -0.78176       -0.88014
B          1.79231       -1.55818        2.13259
B         -0.36461        1.77957       -0.91868
B         -5.98925        1.63826        0.73787
B         -6.16906       -0.07738        0.77959
B         -5.95629       -1.80546        0.75921
B          1.88187       -0.35065       -0.40534
