45
isomer_1940.log	Energy: -112779.0284809
B          2.56798       -1.62285        0.37154
B          2.57840       -3.25529       -0.03175
B          1.18109       -4.09985       -0.27880
B         -0.28313       -3.29423        0.29097
B          1.09900       -0.75419        0.69778
B         -1.77459       -0.82188        0.79814
B         -1.66706       -4.08769       -0.40148
B          4.01492       -0.72911        0.30258
B         -1.67799       -2.41696        0.21435
B          3.97441       -2.41509       -0.17789
B         -0.23465       -4.73088       -0.55797
B         -3.10973       -3.25906       -0.39616
B         -3.15380       -1.64627        0.19342
B         -4.62650       -0.84538       -0.28383
B         -0.37277        1.75139        0.89326
B         -1.76755        2.43744        0.28443
B         -3.21394        1.61378        0.24049
B         -4.65637        0.77322       -0.26046
B         -4.51889        2.33706       -0.48405
B         -3.22970        3.24344       -0.30229
B         -1.81857        4.12451       -0.28292
B         -0.40595        3.36297        0.38708
B         -0.41093        4.82434       -0.42003
B          2.45490        3.43892        0.06489
B          1.02726        4.23815       -0.15843
B          2.50490        1.79625        0.42090
B          3.88087        2.65534       -0.10469
B          3.98378        0.95884        0.32694
B          1.06073        2.59149        0.60291
B          1.15421       -2.47573        0.52976
B         -3.26316       -0.12345        0.61254
B          1.06913        0.86496        0.72115
B         -4.43157       -2.39598       -0.55238
B          5.28082       -1.57882       -0.67719
B          5.24915        0.04850       -0.41973
B          5.21696        1.88257       -0.62722
B          6.39636        0.95824       -1.24924
B          6.42500       -0.59406       -1.27165
B         -1.80495        0.82370        0.82190
B          2.07163       -0.26512       -0.39941
B         -0.30913       -1.69779        0.84346
B         -5.95419       -1.71000       -0.74838
B         -6.18117        0.00009       -0.78763
B         -6.01536        1.73333       -0.76929
B          1.69016       -1.63882        2.02439
