45
isomer_1941.log	Energy: -112350.8749713
B          2.67806        1.80413       -0.41917
B          2.61034        3.45483       -0.05666
B          1.17067        4.28371        0.16202
B         -0.27685        3.45389       -0.38368
B          1.10459        0.87515       -0.80678
B         -1.78704        0.86343       -0.84492
B         -1.66556        4.20338        0.29547
B          4.07296        0.85562       -0.34451
B         -1.68607        2.53387       -0.28343
B          4.02458        2.55696        0.10357
B         -0.24863        4.83899        0.42154
B         -3.07775        3.35197        0.32591
B         -3.14485        1.72017       -0.22800
B         -4.59194        0.88124        0.27420
B         -0.47862       -1.75993       -0.91881
B         -1.79831       -2.49302       -0.25799
B         -3.20795       -1.65033       -0.21139
B         -4.61112       -0.77893        0.28186
B         -4.50977       -2.36698        0.55973
B         -3.18209       -3.28207        0.36228
B         -1.79031       -4.16233        0.33622
B         -0.36513       -3.47757       -0.35213
B         -0.36791       -4.84304        0.45229
B          2.55869       -3.51647       -0.03016
B          1.10556       -4.35072        0.19281
B          2.65206       -1.76771       -0.40755
B          3.96797       -2.58899        0.11968
B          4.05379       -0.91211       -0.33134
B          1.14641       -2.78859       -0.57708
B          1.17659        2.68962       -0.60228
B         -3.26727        0.11657       -0.61729
B          1.14830       -0.62328       -0.73956
B         -4.44891        2.47799        0.53813
B          5.29064        1.71116        0.61218
B          5.26910        0.05226        0.38909
B          5.24767       -1.74092        0.62717
B          6.36042       -0.79514        1.21249
B          6.41165        0.71589        1.22187
B         -1.82777       -0.85435       -0.83939
B          1.35989        1.11421        0.10223
B         -0.31840        1.81305       -0.91304
B         -5.84617        1.67566        0.73628
B         -6.03876        0.03529        0.79460
B         -5.88835       -1.60642        0.80833
B          1.01560       -1.72015       -0.76482
