45
isomer_1942.log	Energy: -113551.5403229
B         -2.47339       -1.45608       -0.67370
B         -2.41017       -3.07009       -0.10556
B         -1.56145       -4.10776       -0.92468
B          0.04068       -3.39829       -1.47682
B         -1.11532       -0.64542       -1.41581
B          1.42633       -0.84713       -0.73616
B          0.96273       -4.07383        0.00149
B         -3.65838       -0.51134        0.05703
B          0.90836       -2.32646        0.14366
B         -3.63340       -2.11139        0.42964
B         -0.23612       -4.76790       -0.55927
B          2.22641       -3.33306        0.66280
B          2.52305       -1.82648        0.21271
B          4.02248       -1.12274        0.69612
B          0.54864        1.79222       -1.24668
B          2.02038        2.43205       -0.75468
B          3.27481        1.45116       -0.31501
B          4.49296        0.40610        0.18994
B          4.54928        2.12973        0.59942
B          3.42641        3.08804       -0.05141
B          2.18520        4.08965       -0.12625
B          0.70939        3.47363       -0.85181
B          0.85373        4.83097       -0.01198
B         -2.01472        3.57897       -0.07170
B         -0.58731        4.33649       -0.17649
B         -2.25832        2.02812       -0.65357
B         -3.38501        2.88511        0.37141
B         -3.55175        1.23144        0.10871
B         -0.83320        2.74939       -0.93014
B         -1.37994       -2.39013       -1.52650
B          3.03555       -0.26529       -0.42100
B         -0.96892        1.01522       -1.33531
B          3.56244       -2.67387        1.30079
B         -4.75428       -1.26750        1.18597
B         -4.82132        0.44762        0.86529
B         -4.52544        2.13543        1.18390
B         -5.40412        1.21856        2.13763
B         -5.55048       -0.28042        2.10543
B          1.69553        0.75391       -0.78335
B         -2.29013        0.29810       -0.65622
B          0.21266       -1.72198       -1.36334
B          4.78174       -1.91594        1.81867
B          5.27803       -0.43914        1.61842
B          5.34254        1.08214        1.37168
B         -0.66620       -2.90181        0.10673
