45
isomer_1943.log	Energy: -112286.7249368
B          2.59700       -1.67275        0.30494
B          2.59086       -3.30592       -0.09545
B          1.18493       -4.13778       -0.33663
B         -0.26989       -3.31746        0.23625
B          1.13725       -0.78978        0.63419
B         -1.73652       -0.83034        0.74361
B         -1.66335       -4.09914       -0.45047
B          4.05202       -0.79274        0.22987
B         -1.65670       -2.42729        0.16239
B          3.99422       -2.47911       -0.24744
B         -0.23753       -4.75601       -0.61026
B         -3.09817       -3.25701       -0.44215
B         -3.12528       -1.64284        0.14467
B         -4.59190       -0.82901       -0.32943
B         -0.31036        1.72983        0.82974
B         -1.70055        2.42785        0.22403
B         -3.15472        1.61771        0.18606
B         -4.60652        0.78983       -0.30888
B         -4.45510        2.35192       -0.53571
B         -3.15691        3.24649       -0.35959
B         -1.73753        4.11433       -0.34620
B         -0.33002        3.34076        0.32077
B         -0.32383        4.80068       -0.48894
B          2.53039        3.38931       -0.01045
B          1.10962        4.20150       -0.23077
B          2.56611        1.74688        0.34835
B          3.94842        2.59210       -0.18306
B          4.03677        0.89547        0.25130
B          1.13003        2.55594        0.53343
B          1.17580       -2.51205        0.46909
B         -3.21905       -0.11832        0.56138
B          1.12263        0.82962        0.65474
B         -4.41235       -2.38185       -0.59581
B          5.30683       -1.65600       -0.75231
B          5.29122       -0.02801       -0.49768
B          5.27557        1.80591       -0.70836
B          6.44431        0.86947       -1.33238
B          6.45833       -0.68307       -1.35209
B         -1.75138        0.81549        0.76450
B          1.04810       -1.73946        2.53732
B         -0.27920       -1.71988        0.78595
B         -5.92908       -1.68197       -0.78830
B         -6.14014        0.03010       -0.82992
B         -5.95805        1.76174       -0.81521
B          0.84375        0.94485        1.72492
