45
isomer_1944.log	Energy: -113498.7656979
B         -2.41157       -1.66118       -0.23359
B         -2.51003       -3.40476        0.26855
B         -1.09576       -4.21225        0.35508
B          0.32824       -3.44107       -0.43422
B         -2.12782       -0.07124       -0.79427
B          1.72568       -0.81634       -0.79901
B          1.76841       -4.12979        0.19854
B         -3.86787       -0.94812       -0.28222
B          1.79745       -2.51613       -0.45485
B         -3.83738       -2.46686        0.39738
B          0.37735       -4.72426        0.50170
B          3.16469       -3.27341        0.09944
B          3.23169       -1.70594       -0.46127
B          4.64615       -0.78526       -0.21454
B          0.29144        1.81800       -0.97461
B          1.71275        2.54526       -0.29141
B          3.04612        1.71082       -0.03227
B          4.49639        0.86123        0.14790
B          4.40968        2.48638        0.71110
B          3.00876        3.30916        0.43603
B          1.60229        4.13147        0.51029
B          0.24536        3.37539       -0.23914
B          0.18597        4.69775        0.60860
B         -2.59295        3.31949        0.05205
B         -1.23897        4.11271        0.21484
B         -2.54532        1.65114       -0.54219
B         -3.88604        2.43353        0.14067
B         -3.86064        0.79489       -0.18261
B         -1.22588        2.69589       -0.74920
B         -1.11264       -2.62908       -0.20163
B          3.20749        0.04592       -0.63857
B         -1.24364        1.16778       -1.41059
B          4.52375       -2.43022        0.39607
B         -5.23813       -1.72488        0.53351
B         -5.21997       -0.07222        0.16813
B         -5.19325        1.58388        0.58264
B         -6.34271        0.65925        1.08277
B         -6.42281       -0.82330        0.98325
B          1.65556        0.85966       -0.72497
B          0.07741        0.05950       -0.76512
B          0.30935       -1.75089       -0.71763
B          5.60898       -1.46814        0.89130
B          5.83463        0.05004        0.89098
B          5.62891        1.60512        0.97621
B         -0.91112       -0.91893       -0.00313
