45
isomer_1946.log	Energy: -112647.8742215
B          2.54966        1.76695       -0.46597
B          2.42106        3.40994       -0.04714
B          0.97797        4.18389        0.16753
B         -0.44805        3.37261       -0.38180
B          1.11695        0.89769       -0.83172
B         -1.90639        0.88303       -0.85210
B         -1.86014        4.10110        0.30093
B          4.10139        0.98670       -0.30154
B         -1.84820        2.46577       -0.29636
B          3.83464        2.63496        0.13158
B         -0.44543        4.72301        0.43345
B         -3.27688        3.25107        0.32848
B         -3.29754        1.63187       -0.23070
B         -4.73617        0.76535        0.28529
B         -0.07659       -1.61234       -1.04863
B         -1.75029       -2.52849       -0.16163
B         -3.23582       -1.68371       -0.16198
B         -4.68026       -0.85092        0.30562
B         -4.50091       -2.44667        0.61755
B         -3.09005       -3.32042        0.43602
B         -1.59309       -4.12844        0.41906
B         -0.15463       -3.36592       -0.29810
B         -0.09054       -4.67208        0.52331
B          2.89634       -3.29135        0.00564
B          1.40074       -4.10582        0.21609
B          3.08517       -1.51864       -0.39213
B          4.37336       -2.33308        0.21110
B          4.28395       -0.67118       -0.26411
B          1.35118       -2.56257       -0.63959
B          1.06826        2.58491       -0.62653
B         -3.36116        0.08239       -0.60376
B          1.24803       -0.55454       -0.88905
B         -4.64201        2.37635        0.53926
B          5.19714        1.96317        0.70309
B          5.36342        0.30892        0.49975
B          5.51534       -1.43921        0.74591
B          6.50776       -0.38041        1.36955
B          6.39330        1.10262        1.36392
B         -1.88384       -0.67905       -0.83062
B          2.27379       -1.47754       -1.54093
B         -0.40230        1.77851       -0.94319
B         -6.00217        1.51478        0.73515
B         -6.11488       -0.09463        0.80341
B         -5.88565       -1.69919        0.82836
B         -0.67648       -1.36939       -0.16249
