45
isomer_1948.log	Energy: -113463.6486760
B          2.46825        1.71037       -0.29832
B          2.30076        3.35682        0.33844
B          0.91612        4.07561        0.47160
B         -0.51071        3.33575       -0.34091
B          1.07096        0.84498       -0.55005
B         -1.85891        0.78045       -0.82474
B         -1.97014        3.99079        0.28453
B          3.92806        1.10482       -0.38725
B         -1.92961        2.43553       -0.52470
B          3.74029        2.57198        0.40442
B         -0.57242        4.56164        0.64976
B         -3.35654        3.16321        0.09149
B         -3.34443        1.56590       -0.44243
B         -4.77963        0.60472       -0.35356
B         -0.20474       -1.72306       -1.15051
B         -1.56884       -2.44946       -0.28900
B         -3.05579       -1.79450       -0.28433
B         -4.44020       -0.96860        0.18944
B         -4.24258       -2.54412        0.78430
B         -2.73868       -3.23777        0.56012
B         -1.25360       -3.73267        0.78358
B          0.03864       -3.14647       -0.29974
B          0.29690       -4.01303        1.02268
B          2.77001       -3.10667       -0.30612
B          1.60583       -3.94399        0.23777
B          2.61537       -1.47026       -0.64166
B          4.09760       -2.13395       -0.13591
B          4.00671       -0.54010       -0.50459
B          1.35751       -2.30335        0.59242
B          0.99883        2.49635       -0.13577
B         -3.35811       -0.16926       -0.84499
B          1.08291       -0.83027       -0.24733
B         -4.65818        2.28889        0.31263
B          5.17939        1.95508        0.57794
B          5.34985        0.32764        0.06269
B          5.33905       -1.35093        0.34212
B          6.44720       -0.39157        0.98374
B          6.40950        1.09376        1.01663
B         -1.75524       -0.91213       -1.06272
B          1.35497       -2.40863       -1.22915
B         -0.40354        1.69259       -0.79410
B         -5.70233        1.25593        0.78814
B         -5.83979       -0.24452        0.87628
B         -5.50018       -1.77452        1.07966
B         -0.33049       -0.02300       -0.80252
