45
isomer_0195.log	Energy: -111334.8036816
B          2.53856        1.75106       -0.50453
B          2.51829        3.38952       -0.12687
B          1.10595        4.20772        0.12347
B         -0.34693        3.36195       -0.41636
B          1.08508        0.84603       -0.79985
B         -1.79026        0.85045       -0.86732
B         -1.73968        4.13640        0.27993
B          4.00519        0.88976       -0.43874
B         -1.72151        2.45628       -0.30963
B          3.93373        2.58188        0.01585
B         -0.31981        4.81257        0.40947
B         -3.16405        3.27703        0.30455
B         -3.17996        1.65454       -0.25928
B         -4.62943        0.82989        0.24773
B         -0.33429       -1.69333       -0.93889
B         -1.70682       -2.39942       -0.30303
B         -3.17010       -1.60639       -0.25485
B         -4.62453       -0.78914        0.24993
B         -4.45071       -2.34594        0.49622
B         -3.14437       -3.22722        0.31339
B         -1.71483       -4.07801        0.29109
B         -0.32679       -3.29704       -0.40731
B         -0.29090       -4.74522        0.42246
B          2.53855       -3.30649       -0.11777
B          1.13119       -4.13253        0.13481
B          2.54891       -1.66897       -0.49989
B          3.94908       -2.48992        0.02274
B          4.01030       -0.79864       -0.43645
B          1.12029       -2.49778       -0.65243
B          1.10495        2.57080       -0.65932
B         -3.26115        0.12328       -0.65331
B          1.08998       -0.77356       -0.79764
B         -4.46503        2.38837        0.48978
B          5.26356        1.78183        0.51266
B          5.26415        0.15034        0.28097
B          5.27404       -1.68049        0.51736
B          6.44022       -0.72134        1.11095
B          6.43552        0.83137        1.10884
B         -1.78528       -0.79556       -0.86508
B          1.82888        0.15985        1.88343
B         -0.34472        1.75678       -0.94358
B         -5.97010        1.67308        0.71440
B         -6.15956       -0.04066        0.78296
B         -5.95652       -1.77002        0.78966
B          1.41092       -1.62308       -0.25050
