45
isomer_1950.log	Energy: -113437.9261744
B         -2.59801       -1.58205       -0.34323
B         -1.44463       -4.12859       -0.21160
B         -0.39535       -5.10460       -0.44662
B          0.30208       -3.50468       -0.28750
B         -1.07865       -0.74567       -0.61270
B          1.65706       -0.76849       -0.37717
B          2.04492       -4.05946        0.32948
B         -4.05217       -0.70397       -0.31154
B          1.71737       -2.44657        0.04974
B         -4.05074       -2.32802        0.14469
B          0.93694       -5.03994        0.06885
B          3.24007       -3.12191        0.42119
B          3.17311       -1.52292        0.00966
B          4.65110       -0.68074        0.01011
B          0.34497        1.74821       -0.77032
B          1.76146        2.58163       -0.38128
B          3.18960        1.78549       -0.27125
B          4.66417        0.98928       -0.22640
B          4.53199        2.67208        0.32604
B          3.15230        3.43751        0.03809
B          1.76442        4.25831        0.15169
B          0.34376        3.45871       -0.41769
B          0.34450        4.86032        0.32162
B         -2.47048        3.43689        0.04423
B         -1.05948        4.25685        0.13562
B         -2.54265        1.84846       -0.42719
B         -3.90399        2.66586        0.18717
B         -4.00768        1.04430       -0.28078
B         -1.12239        2.62100       -0.52279
B         -1.18165       -2.45950       -0.43026
B          3.19931        0.09095       -0.53619
B         -1.07123        0.88213       -0.74000
B          4.59868       -2.24397        0.68318
B         -5.34415       -1.49722        0.55529
B         -5.36073        0.20381        0.25341
B         -5.23928        1.89489        0.60446
B         -6.38187        0.98147        1.20246
B         -6.43335       -0.53572        1.17638
B          1.66803        0.86193       -0.51501
B         -2.68090       -3.17293       -0.00455
B          0.32182       -1.72262       -0.47813
B          5.76427       -1.31454        0.95469
B          5.92703        0.23462        0.78001
B          5.67942        1.75135        0.75218
B         -2.55903        0.11808       -0.60804
