45
isomer_1952.log	Energy: -113675.8811165
B         -2.56468       -1.72877       -0.53159
B         -2.51678       -3.30312        0.03641
B         -1.16084       -4.14918        0.10697
B          0.26644       -3.40346       -0.54025
B         -1.17151       -0.85113       -1.06801
B          1.71569       -0.84294       -0.77973
B          1.63835       -4.17109        0.25811
B         -3.98536       -0.84357       -0.22536
B          1.72155       -2.55213       -0.42884
B         -3.87130       -2.48314        0.27579
B          0.21555       -4.74856        0.35132
B          3.00556       -3.34343        0.27882
B          3.12682       -1.73514       -0.21828
B          4.54748       -0.89773        0.14092
B          0.37156        1.82458       -1.11770
B          1.80473        2.53210       -0.49048
B          3.17549        1.67928       -0.26189
B          4.53101        0.79386        0.24169
B          4.40938        2.44237        0.74864
B          3.09554        3.27940        0.26478
B          1.75213        4.14407        0.24449
B          0.35408        3.38410       -0.51362
B          0.34581        4.74576        0.35171
B         -2.42460        3.33608        0.04048
B         -1.04415        4.15749        0.12304
B         -2.50732        1.76052       -0.48719
B         -3.80762        2.53902        0.29302
B         -3.95563        0.91291       -0.21632
B         -1.11710        2.59060       -0.76360
B         -1.18823       -2.57694       -0.78818
B          3.29354       -0.01710       -0.60981
B         -1.12830        0.84916       -1.03922
B          4.32345       -2.50251        0.77000
B         -5.10548       -1.64869        0.84461
B         -5.19580        0.04750        0.52190
B         -5.05933        1.74160        0.86467
B         -6.08380        0.81743        1.61263
B         -6.10588       -0.70290        1.60436
B          1.79037        0.83060       -0.91637
B         -2.61006        0.01685       -0.74673
B          0.31114       -1.83001       -1.08492
B          5.36894       -1.57123        1.33835
B          5.61987       -0.03601        1.30437
B          5.47641        1.51609        1.29985
B          0.34285       -0.00259       -1.08884
