45
isomer_1954.log	Energy: -113456.8914250
B         -2.51634       -1.54293       -0.36167
B         -2.46951       -3.20709        0.10775
B         -1.30438       -4.07058        0.74414
B          0.26148       -3.27650       -0.60422
B         -1.09175       -0.67890       -0.88925
B          1.74805       -0.77379       -0.86282
B          1.58875       -4.02170        0.26001
B         -3.95019       -0.70540       -0.25727
B          1.70740       -2.43921       -0.46462
B         -3.84733       -2.31093        0.28554
B          0.13506       -4.53341        0.48153
B          2.98152       -3.25101        0.28224
B          3.15634       -1.68927       -0.23850
B          4.56406       -0.83457        0.16790
B          0.42584        1.76725       -0.96051
B          1.85431        2.52992       -0.47153
B          3.26209        1.69816       -0.27144
B          4.69500        0.82079       -0.01920
B          4.52592        2.45738        0.61262
B          3.20167        3.28359        0.22945
B          1.84164        4.13762        0.28798
B          0.43543        3.41639       -0.41718
B          0.44006        4.76011        0.43004
B         -2.40043        3.43897        0.01471
B         -0.97146        4.20113        0.16831
B         -2.48377        1.86112       -0.53519
B         -3.80530        2.68729        0.19967
B         -3.94160        1.04995       -0.33658
B         -1.05629        2.63171       -0.61193
B         -1.14491       -2.36485       -0.77669
B          3.29377        0.02126       -0.61374
B         -1.04082        0.94577       -0.97447
B          4.36856       -2.46361        0.68370
B         -5.10850       -1.47799        0.79885
B         -5.18989        0.21067        0.41771
B         -5.09992        1.91396        0.66807
B         -6.18041        1.00600        1.38352
B         -6.17110       -0.50951        1.45103
B          1.78444        0.86001       -0.82329
B         -2.56462        0.17341       -0.84580
B          0.35694       -1.52017       -0.95372
B          5.52481       -1.58960        1.18320
B          5.76717       -0.05563        1.13462
B          5.58511        1.48518        1.13053
B         -1.16691       -4.04101       -0.83350
