45
isomer_1955.log	Energy: -111482.2178515
B         -2.67725       -1.57693       -0.38516
B         -2.68684       -3.22278        0.02373
B         -1.28884       -4.07287        0.28303
B          0.19701       -3.25991       -0.28724
B         -1.21563       -0.71110       -0.70977
B          1.70987       -0.74572       -0.79521
B          1.57894       -4.04466        0.41750
B         -4.10598       -0.68485       -0.32047
B          1.60321       -2.37365       -0.19849
B         -4.07226       -2.36944        0.16082
B          0.14098       -4.68713        0.56710
B          3.02542       -3.20749        0.41724
B          3.08576       -1.59057       -0.17535
B          4.55382       -0.78058        0.30467
B          0.29107        1.79852       -0.90325
B          1.69187        2.49218       -0.28585
B          3.13998        1.67290       -0.23214
B          4.58259        0.83649        0.27750
B          4.44280        2.40358        0.50152
B          3.14375        3.30068        0.30845
B          1.73083        4.17332        0.28088
B          0.32171        3.41032       -0.39476
B          0.32171        4.85839        0.40974
B         -2.54037        3.47567       -0.07846
B         -1.11376        4.27244        0.14604
B         -2.59548        1.83265       -0.43754
B         -3.96375        2.68971        0.08650
B         -4.06997        1.00270       -0.34597
B         -1.15344        2.63075       -0.61503
B         -1.26739       -2.43105       -0.53527
B          3.19658       -0.05670       -0.60024
B         -1.16645        0.90242       -0.73539
B          4.36387       -2.33823        0.58210
B         -5.37006       -1.52941        0.65806
B         -5.33275        0.09739        0.39856
B         -5.29591        1.92199        0.60481
B         -6.46978        1.00534        1.22368
B         -6.50668       -0.54073        1.24991
B          1.73701        0.88860       -0.82066
B         -0.98805       -3.03513       -1.01922
B          0.19587       -1.65443       -0.85303
B          5.86566       -1.63475        0.77764
B          6.08994        0.06601        0.81309
B          5.92408        1.78019        0.78988
B          0.94627       -0.96413       -0.55396
