45
isomer_1956.log	Energy: -113371.4828475
B         -2.59499        1.74028        0.51492
B         -2.39377        3.29803       -0.31591
B         -0.99728        4.04751       -0.30713
B          0.36815        3.25704        0.45778
B         -1.28804        0.90142        1.08835
B          1.84895        0.72895        1.30839
B          1.79311        4.05856       -0.10272
B         -3.96409        0.96756        0.07795
B          1.78357        2.37194        0.74972
B         -3.72354        2.49389       -0.50477
B          0.42061        4.63343       -0.37830
B          3.07874        3.17697       -0.07689
B          3.20550        1.61971        0.46115
B          4.45048        0.73355       -0.36900
B          0.28298       -1.70197        1.20938
B          1.55604       -2.50478        0.23847
B          3.05631       -1.81932        0.00905
B          4.28552       -0.87590       -0.63565
B          4.14615       -2.51033       -1.13213
B          2.79738       -3.31717       -0.56462
B          1.40316       -4.07825       -0.36614
B          0.12532       -3.30558        0.65541
B         -0.03062       -4.54268       -0.39342
B         -2.69904       -3.17215        0.00373
B         -1.38025       -3.94943       -0.06184
B         -2.70986       -1.48763        0.63121
B         -3.96446       -2.32401       -0.25013
B         -4.08591       -0.76304        0.19267
B         -1.32641       -2.37690        0.69501
B         -1.14347        2.46209        0.39658
B          3.25931       -0.11762        0.44057
B         -1.36008       -0.74654        1.00621
B          4.34944        2.40056       -0.66131
B         -5.09039        1.74217       -0.97498
B         -5.31531        0.16752       -0.40969
B         -5.27775       -1.49711       -0.77341
B         -6.25656       -0.61655       -1.54798
B         -6.15043        0.85602       -1.66105
B          1.99552       -1.04456        1.10289
B          0.00620        0.07071        1.65619
B          0.30240        1.67769        1.01331
B          5.33283        1.51164       -1.43301
B          5.45471       -0.02790       -1.60663
B          5.21131       -1.59555       -1.70798
B          1.23858       -0.54225        2.32578
