45
isomer_1958.log	Energy: -113675.8866581
B          2.50968       -1.75937        0.48889
B          2.42841       -3.33432       -0.03975
B          1.04864       -4.15688       -0.12309
B         -0.35017       -3.38472        0.51397
B          1.12999       -0.84867        1.04211
B         -1.78583       -0.83070        0.91060
B         -1.74704       -4.14436       -0.24690
B          3.95682       -0.90988        0.21619
B         -1.80132       -2.53272        0.48800
B          3.81040       -2.53671       -0.29219
B         -0.34034       -4.74564       -0.35268
B         -3.09115       -3.28101       -0.26671
B         -3.17303       -1.68100        0.25984
B         -4.53233       -0.79879       -0.23656
B         -0.31308        1.83071        1.08761
B         -1.72508        2.55100        0.43153
B         -3.12934        1.73271        0.22142
B         -4.54705        0.89319       -0.14588
B         -4.32731        2.49901       -0.76988
B         -3.00928        3.33981       -0.27830
B         -1.64284        4.16931       -0.25858
B         -0.26968        3.40272        0.53826
B         -0.22086        4.74776       -0.35371
B          2.51280        3.30382       -0.03742
B          1.15571        4.14896       -0.10971
B          2.56272        1.73077        0.52974
B          3.86913        2.48551       -0.27613
B          3.98410        0.84612        0.22500
B          1.18536        2.57772        0.78841
B          1.11994       -2.58984        0.76560
B         -3.29359        0.01573        0.60919
B          1.16980        0.85081        1.06835
B         -4.40630       -2.44475       -0.74979
B          5.06119       -1.73795       -0.86412
B          5.19550       -0.04359       -0.52275
B          5.10407        1.65257       -0.84545
B          6.10445        0.70765       -1.60576
B          6.08437       -0.81303       -1.61284
B         -1.71818        0.84311        0.78889
B          2.60985       -0.01575        0.74622
B         -0.36863       -1.82533        1.11711
B         -5.47285       -1.51897       -1.30139
B         -5.62018        0.03295       -1.30409
B         -5.37458        1.56938       -1.33738
B         -0.34286        0.00263        1.09412
