45
isomer_0196.log	Energy: -112609.0894658
B          2.43841        1.89369       -0.45507
B          2.35768        3.51940       -0.04117
B          0.93185        4.28617        0.22014
B         -0.49371        3.41860       -0.33172
B          0.99083        0.98437       -0.77248
B         -1.84948        0.87180       -0.83869
B         -1.90390        4.12777        0.37618
B          3.95282        1.08828       -0.39528
B         -1.84315        2.47680       -0.24381
B          3.78974        2.74856        0.08374
B         -0.49677        4.82146        0.51259
B         -3.29518        3.23243        0.38505
B         -3.26476        1.62375       -0.21143
B         -4.68419        0.73182        0.27134
B         -0.33471       -1.59049       -0.95617
B         -1.65805       -2.38793       -0.32867
B         -3.13634       -1.64786       -0.27469
B         -4.60924       -0.89185        0.23678
B         -4.39532       -2.45729        0.46299
B         -3.03382       -3.28375        0.26413
B         -1.59446       -4.06923        0.23639
B         -0.24175       -3.23432       -0.43509
B         -0.15371       -4.67352        0.36186
B          2.69236       -3.14215       -0.15013
B          1.25156       -4.03970        0.12026
B          2.69247       -1.49261       -0.49278
B          4.09683       -2.27600        0.02093
B          4.05755       -0.58898       -0.42019
B          1.17603       -2.37539       -0.66307
B          0.97650        2.67976       -0.59019
B         -3.28917        0.08182       -0.63765
B          1.01555       -0.57146       -0.80492
B         -4.59310        2.30708        0.55893
B          5.15771        2.01049        0.56943
B          5.24518        0.37833        0.30890
B          5.34900       -1.42338        0.50617
B          6.44076       -0.42529        1.10959
B          6.36648        1.10476        1.14050
B         -1.78712       -0.77504       -0.86851
B          2.33989       -3.46000        1.07252
B         -0.44349        1.82809       -0.89273
B         -6.02007        1.48099        0.74736
B         -6.13218       -0.18962        0.77145
B         -5.87638       -1.87022        0.74231
B          1.81085       -0.83017       -0.27510
