45
isomer_1960.log	Energy: -113458.6992334
B         -2.56803       -1.61177       -0.43876
B         -2.52367       -3.31724        0.04710
B         -1.22409       -4.12781       -0.18929
B          0.23457       -3.32892       -0.93983
B         -1.21734       -0.74178       -0.83211
B          1.57826       -0.75332       -0.51039
B          1.55909       -4.14065        0.00884
B         -3.89244       -0.85424       -0.10272
B          1.41033       -2.41431       -0.04251
B         -3.80532       -2.45505        0.31034
B          0.18398       -4.71463       -0.07500
B          2.87683       -3.28547        0.30499
B          3.00015       -1.71604       -0.10240
B          4.46429       -0.86616        0.10201
B          0.32508        1.81871       -1.20962
B          1.70723        2.56954       -0.46797
B          3.08783        1.74870       -0.22247
B          4.36105        0.78935        0.39702
B          4.33810        2.46743        0.76015
B          3.01514        3.32330        0.27069
B          1.64482        4.15812        0.20498
B          0.27171        3.43494       -0.64839
B          0.22086        4.70637        0.31990
B         -2.54122        3.38170       -0.05381
B         -1.19195        4.14516        0.02328
B         -2.55240        1.66221       -0.63432
B         -3.80349        2.51396        0.19877
B         -3.91122        0.91226       -0.16119
B         -1.20414        2.57834       -0.75314
B         -1.08705       -2.41046       -0.25544
B          3.14838        0.00316       -0.49827
B         -1.20528        0.93712       -1.06602
B          4.21283       -2.50064        0.75941
B         -5.11658       -1.61046        0.87104
B         -5.15392        0.03455        0.44760
B         -5.09902        1.68888        0.76415
B         -6.13022        0.79598        1.51688
B         -6.13134       -0.70072        1.55571
B          1.74792        0.92473       -0.98306
B          0.09751       -1.25697        0.23544
B          0.29064       -1.73423       -1.45748
B          5.32077       -1.55996        1.25399
B          5.58001       -0.03711        1.26166
B          5.43419        1.54018        1.26959
B          0.24715        0.00325       -1.23932
