45
isomer_1961.log	Energy: -112736.3188009
B         -2.62199        1.72297        0.37877
B         -2.58814        3.35189       -0.01743
B         -1.18110        4.18911       -0.25160
B          0.26023        3.37701        0.31035
B         -1.18067        0.87775        0.68365
B          1.74483        0.85927        0.81109
B          1.65330        4.14281       -0.36568
B         -4.04829        0.82908        0.30901
B          1.66256        2.47986        0.23421
B         -3.98920        2.49800       -0.16673
B          0.23412        4.77505       -0.51501
B          3.08148        3.29946       -0.36438
B          3.12589        1.68880        0.20785
B          4.59516        0.86217       -0.26845
B          0.34358       -1.73734        0.89519
B          1.74044       -2.42739        0.26071
B          3.16832       -1.61271        0.22797
B          4.60422       -0.77267       -0.25775
B          4.47975       -2.34463       -0.51363
B          3.14995       -3.23637       -0.33346
B          1.73255       -4.10138       -0.33231
B          0.32731       -3.34179        0.34594
B          0.31801       -4.74528       -0.46282
B         -2.55326       -3.36258        0.02183
B         -1.12681       -4.17588       -0.20427
B         -2.61422       -1.71310        0.39666
B         -3.96404       -2.53900       -0.13138
B         -4.04028       -0.87522        0.32007
B         -1.17379       -2.55026        0.55805
B         -1.19835        2.58637        0.53368
B          3.22898        0.13016        0.61558
B         -1.21103       -0.76739        0.70434
B          4.43832        2.43729       -0.54110
B         -5.28674        1.68469       -0.66195
B         -5.27175        0.04834       -0.41199
B         -5.26235       -1.74587       -0.62845
B         -6.39770       -0.81398       -1.23080
B         -6.42685        0.71039       -1.25295
B          1.77259       -0.80269        0.82674
B         -1.56664        0.57579        1.75673
B          0.26603        1.78125        0.84867
B          5.88180        1.67418       -0.72081
B          6.07867        0.01683       -0.76474
B          5.90925       -1.65852       -0.76381
B         -0.09413       -1.27445       -0.08557
