45
isomer_1966.log	Energy: -111754.4472737
B          2.63999       -1.61780        0.40400
B          2.63497       -3.25351        0.01412
B          1.23010       -4.08421       -0.23705
B         -0.22925       -3.25739        0.31460
B          1.17851       -0.72990        0.71158
B         -1.69636       -0.76422        0.78984
B         -1.61669       -4.04082       -0.38225
B          4.09751       -0.74109        0.33917
B         -1.61339       -2.36505        0.21984
B          4.04155       -2.43040       -0.12786
B         -0.19052       -4.70145       -0.52221
B         -3.04983       -3.19589       -0.39505
B         -3.08012       -1.57790        0.18101
B         -4.53985       -0.76434       -0.31433
B         -0.26612        1.79370        0.87504
B         -1.64822        2.49046        0.24968
B         -3.10351        1.68290        0.20105
B         -4.55147        0.85463       -0.30438
B         -4.39446        2.41492       -0.53961
B         -3.09648        3.30810       -0.35509
B         -1.67561        4.17328       -0.33178
B         -0.27701        3.40134        0.35551
B         -0.25907        4.85597       -0.46349
B          2.58694        3.44224        0.05526
B          1.17028        4.25572       -0.18580
B          2.61546        1.80209        0.42502
B          4.00517        2.64120       -0.09669
B          4.08539        0.94725        0.34954
B          1.17907        2.61510        0.58916
B          1.21542       -2.45328        0.55802
B         -3.17540       -0.05054        0.58684
B          1.16689        0.88962        0.72153
B         -4.36050       -2.31921       -0.56870
B          5.36124       -1.61311       -0.62364
B          5.34609        0.01652       -0.37971
B          5.33641        1.84907       -0.60237
B          6.51002        0.90636       -1.20753
B          6.52115       -0.64630       -1.21707
B         -1.70817        0.88173        0.79996
B          0.40613       -2.55875       -0.04303
B         -0.24137       -1.65627        0.85384
B         -5.87364       -1.61768       -0.78227
B         -6.08082        0.09449       -0.83724
B         -5.89544        1.82584       -0.83171
B         -0.70501       -0.70341        1.75427
