45
isomer_1969.log	Energy: -113639.8145436
B         -2.34135        1.42250        0.30044
B         -1.92722        2.73249       -0.96340
B         -0.55264        3.47025       -0.93488
B          0.70583        3.00210        0.27338
B         -0.98945        0.67255        0.86252
B          2.00413        0.57322        1.21942
B          2.25108        3.60501       -0.26925
B         -3.96148        1.65400        0.65918
B          2.14189        2.18259        0.73276
B         -3.36352        2.04270       -0.99845
B          0.94430        4.00345       -0.92841
B          3.59260        2.78929        0.13469
B          3.50103        1.24649        0.77639
B          4.79034        0.12448        0.40465
B          0.30901       -1.94960        1.88705
B          0.93336       -2.11356        0.21962
B          2.56113       -1.81882       -0.03814
B          4.15661       -1.27131       -0.31652
B          3.40695       -2.41251       -1.38645
B          1.81565       -2.72082       -1.11542
B          0.22482       -3.01584       -1.07064
B         -0.59973       -2.90032        0.46583
B         -1.30567       -3.28389       -1.15566
B         -1.09458       -1.62412       -0.80498
B         -2.63520       -2.60401       -0.95598
B         -2.01790       -0.37722       -0.25453
B         -3.47253       -1.49695       -0.32929
B         -3.65976        0.27176       -0.45156
B         -2.23849       -2.18911        0.72173
B         -0.75816        2.10264       -0.01077
B          3.32157       -0.53219        0.96765
B         -0.88437       -1.02824        0.96343
B          4.86032        1.84682       -0.07171
B         -4.84931        1.58133       -0.93081
B         -5.15681        0.71458        0.65637
B         -4.96681       -0.86173       -0.12508
B         -6.37137       -0.45101        0.10031
B         -6.08989        0.65042       -0.79952
B          1.76730       -1.17473        1.48048
B         -1.20738       -2.44321        1.97434
B          0.56571        1.49784        1.00035
B          5.77651        0.79907       -0.65752
B          5.53543       -0.65002       -1.09737
B          4.84446       -1.94953       -1.58842
B          0.43360       -0.11687        1.45417
