45
isomer_1970.log	Energy: -113376.5091752
B          2.58168        1.74400       -0.61551
B          2.51352        3.38151       -0.11376
B          1.15771        4.18303        0.08239
B         -0.29182        3.43438       -0.50025
B          1.18974        0.95755       -1.14900
B         -1.76841        0.91586       -0.89555
B         -1.63458        4.16507        0.32374
B          3.98302        0.93090       -0.28255
B         -1.73189        2.59873       -0.47539
B          3.86437        2.52905        0.14135
B         -0.22656        4.76160        0.40104
B         -3.01969        3.31843        0.36353
B         -3.09052        1.74692       -0.12929
B         -4.48634        0.83769        0.29235
B         -0.29131       -1.66805       -1.04496
B         -1.72354       -2.45997       -0.43699
B         -3.13459       -1.65957       -0.23870
B         -4.54937       -0.83718        0.02686
B         -4.33529       -2.45340        0.67961
B         -2.98831       -3.31935        0.19443
B         -1.61352       -4.08289        0.12023
B         -0.26848       -3.32561       -0.77669
B         -0.12487       -4.62803        0.25927
B          2.41933       -3.13927        0.08862
B          1.39269       -4.40881        0.06882
B          2.65665       -1.48322       -0.66750
B          3.75874       -2.21021        0.41060
B          4.01953       -0.75838       -0.33272
B          1.25859       -2.29378       -0.87341
B          1.21187        2.64829       -0.81216
B         -3.24906        0.06970       -0.59118
B          1.24516       -0.61731       -1.12394
B         -4.33681        2.49944        0.81348
B          5.03699        1.74116        0.84584
B          5.23834        0.09854        0.46066
B          5.09739       -1.56600        0.87931
B          6.15744       -0.66988        1.57860
B          6.05174        0.81061        1.64136
B         -1.67916       -0.77472       -0.73646
B          0.73119       -3.05803        0.50829
B         -0.33061        1.88092       -1.15375
B         -5.45472        1.56189        1.31391
B         -5.62227        0.02437        1.27237
B         -5.34593       -1.50891        1.26387
B         -0.26803        0.08297       -1.08077
