45
isomer_1971.log	Energy: -112681.8617740
B          2.62155       -1.68747        0.33002
B          2.59468       -3.32144       -0.07990
B          1.20905       -4.14638       -0.32742
B         -0.24091       -3.34314        0.22780
B          1.19001       -0.83130        0.64146
B         -1.70716       -0.84483        0.73475
B         -1.62036       -4.10798       -0.46191
B          4.04506       -0.80943        0.26631
B         -1.63373       -2.45401        0.14768
B          3.97801       -2.47391       -0.21544
B         -0.20618       -4.73058       -0.60324
B         -3.05173       -3.25561       -0.45951
B         -3.09384       -1.65298        0.12107
B         -4.55420       -0.81021       -0.34329
B         -0.29656        1.77155        0.80856
B         -1.67864        2.45316        0.20700
B         -3.11333        1.64131        0.17453
B         -4.55169        0.80623       -0.31202
B         -4.42545        2.38854       -0.56038
B         -3.09239        3.26571       -0.37233
B         -1.68377        4.12859       -0.36439
B         -0.27855        3.36384        0.30674
B         -0.27895        4.76973       -0.48895
B          2.58017        3.38186       -0.00494
B          1.16435        4.19929       -0.22897
B          2.63533        1.73532        0.35120
B          3.99258        2.54509       -0.16863
B          4.05052        0.89209        0.27645
B          1.20756        2.57944        0.51933
B          1.21789       -2.53983        0.47121
B         -3.18860       -0.10308        0.54161
B          1.24350        0.82924        0.63680
B         -4.41186       -2.38770       -0.63048
B          5.27760       -1.66991       -0.70319
B          5.27397       -0.03159       -0.45181
B          5.27332        1.75698       -0.66765
B          6.40371        0.81528       -1.26810
B          6.42445       -0.69605       -1.29525
B         -1.72665        0.79450        0.75496
B          0.42295       -0.86611        3.28607
B         -0.25075       -1.74508        0.77960
B         -5.83549       -1.60338       -0.79788
B         -6.01880        0.04386       -0.82480
B         -5.83352        1.68909       -0.80380
B         -0.03316        0.26133        0.85113
