45
isomer_1972.log	Energy: -113437.9635582
B         -2.40215       -1.01853       -0.22218
B         -2.77071       -2.68737        0.53385
B         -1.50577       -3.21660        1.26949
B          0.11201       -2.73703       -0.03925
B         -0.70790       -1.25911       -0.87151
B          2.09631       -1.02315       -1.39184
B          1.41986       -2.89998        1.29264
B         -3.87888       -0.25633       -0.53624
B          1.80753       -2.29245       -0.19984
B         -3.94351       -1.85293       -0.05150
B         -0.09254       -2.93044        1.65124
B          2.92304       -2.65101        0.96296
B          3.26096       -1.51827       -0.25017
B          4.65941       -0.61118       -0.01070
B          0.40149        1.02591       -0.31498
B          1.69742        2.06723       -0.41530
B          3.27849        1.64230       -0.75109
B          4.85009        0.89195       -0.77792
B          4.50241        2.57389       -0.10579
B          3.04896        3.15378       -0.16982
B          1.62007        3.76136        0.27657
B          0.29210        2.69577        0.16124
B          0.26536        4.14647        0.82591
B         -2.44520        2.56345        0.83614
B         -1.08828        3.34752        0.88025
B         -2.65466        0.99506       -0.11989
B         -3.89488        2.29062        0.60375
B         -4.04711        1.43541       -0.77957
B         -1.10109        1.68317        0.38347
B         -1.63621       -2.80682       -0.66869
B          3.52353       -0.05692       -1.18747
B         -1.06908        0.10641       -0.06522
B          4.43261       -1.98142        0.97961
B         -5.35033       -1.12608       -0.09344
B         -5.41143        0.51493       -0.58735
B         -5.40362        2.05922        0.12527
B         -6.67526        1.22382        0.24218
B         -6.59754       -0.26433        0.19991
B          1.86879        0.51203       -0.93097
B         -1.10742       -1.61777        0.78553
B          0.77243       -1.91891       -1.58321
B          5.71211       -1.20807        1.03177
B          5.99484        0.27591        0.55430
B          5.71465        1.72890        0.28991
B         -0.47087       -2.76040       -1.76207
