45
isomer_1973.log	Energy: -113290.3211311
B         -2.17263        2.27996        0.68412
B         -1.93395        3.89995        0.14886
B         -0.49325        4.53849        0.20705
B          0.80026        3.57186        0.83332
B         -0.97490        1.35690        1.37503
B          1.56937        0.69695        0.91463
B          2.24219        4.01949        0.03058
B         -3.24421        1.45549       -0.16023
B          2.03387        2.39931        0.70900
B         -3.13884        3.10603       -0.40230
B          0.97773        4.88684       -0.04291
B          3.43835        2.92661       -0.04553
B          3.16957        1.34733        0.24678
B          4.26882        0.26018       -0.40496
B         -0.37291       -1.64878        1.10168
B          0.79397       -2.40809        0.21357
B          2.37585       -1.89527       -0.05746
B          3.98806       -1.34575       -0.39586
B          3.37629       -2.72964       -1.18172
B          1.97537       -3.32567       -0.68203
B          0.60679       -4.07273       -0.34028
B         -0.27063       -3.42827        1.29064
B         -0.51680       -4.83551        0.31811
B         -2.54301       -3.07501       -0.04554
B         -1.79732       -4.25738        0.89419
B         -2.20830       -1.40893        0.55825
B         -3.33761       -1.91267       -0.68782
B         -3.10895       -0.30441       -0.36851
B         -1.90729       -2.81235        1.66257
B         -0.76170        2.97179        1.06605
B          2.91020       -0.32403        0.42087
B         -1.36635       -0.16904        1.42702
B          4.59308        1.93537       -0.63524
B         -4.35050        2.29860       -1.19043
B         -4.31804        0.62928       -1.00638
B         -4.27256       -0.97267       -1.53528
B         -5.18267       -0.00060       -2.29300
B         -5.26333        1.46850       -2.09268
B          1.17629       -0.79992        0.70754
B         -1.75819       -1.40136        2.24542
B          0.53208        1.92045        1.33953
B          5.47046        0.89258       -1.28611
B          5.26280       -0.63103       -1.51550
B          4.62867       -2.01339       -1.71845
B         -0.89615       -3.08947       -0.30660
