45
isomer_1975.log	Energy: -113675.8845867
B         -2.56407       -1.72965       -0.53143
B         -2.51592       -3.30349        0.03594
B         -1.15960       -4.14890        0.10806
B          0.26717       -3.40314       -0.53956
B         -1.17087       -0.85098       -1.06926
B          1.71669       -0.84350       -0.78300
B          1.63955       -4.17066        0.25828
B         -3.98471       -0.84405       -0.22494
B          1.72242       -2.55178       -0.42898
B         -3.87091       -2.48379        0.27528
B          0.21685       -4.74798        0.35248
B          3.00670       -3.34260        0.27867
B          3.12773       -1.73495       -0.21924
B          4.54693       -0.89644        0.14302
B          0.37057        1.82465       -1.11734
B          1.80365        2.53200       -0.48976
B          3.17455        1.67947       -0.26108
B          4.53151        0.79525        0.24009
B          4.40886        2.44336        0.74807
B          3.09415        3.27952        0.26518
B          1.75082        4.14411        0.24476
B          0.35311        3.38418       -0.51385
B          0.34459        4.74610        0.35089
B         -2.42544        3.33568        0.04070
B         -1.04520        4.15757        0.12297
B         -2.50788        1.76032       -0.48681
B         -3.80853        2.53863        0.29314
B         -3.95562        0.91210       -0.21530
B         -1.11781        2.59028       -0.76385
B         -1.18729       -2.57725       -0.78888
B          3.29346       -0.01690       -0.60952
B         -1.12900        0.84892       -1.04001
B          4.32432       -2.50141        0.77074
B         -5.10551       -1.64969        0.84431
B         -5.19569        0.04653        0.52246
B         -5.05982        1.74082        0.86480
B         -6.08411        0.81639        1.61266
B         -6.10555       -0.70422        1.60483
B          1.78886        0.83022       -0.91466
B         -2.60954        0.01674       -0.74609
B          0.31196       -1.83026       -1.08636
B          5.37029       -1.57066        1.33887
B          5.62000       -0.03501        1.30459
B          5.47550        1.51724        1.30015
B          0.34284       -0.00275       -1.09103
