45
isomer_1976.log	Energy: -113089.4875909
B          2.52905        1.79996       -0.42923
B          2.44413        3.42890       -0.03278
B          1.03088        4.23613        0.19800
B         -0.39615        3.39837       -0.36148
B          1.07789        0.91975       -0.76882
B         -1.79758        0.83844       -0.83959
B         -1.79564        4.12879        0.31505
B          4.02503        0.96439       -0.33450
B         -1.78782        2.46749       -0.27543
B          3.86106        2.61966        0.12671
B         -0.39823        4.78106        0.45828
B         -3.21009        3.24685        0.32968
B         -3.20394        1.63278       -0.22926
B         -4.63372        0.75917        0.26126
B         -0.29300       -1.71887       -0.90349
B         -1.65932       -2.46432       -0.24982
B         -3.11506       -1.68638       -0.22232
B         -4.57328       -0.87594        0.25676
B         -4.40688       -2.44609        0.53743
B         -3.04021       -3.30015        0.35324
B         -1.60177       -4.13636        0.35773
B         -0.24498       -3.36527       -0.31956
B         -0.21277       -4.75188        0.47600
B          2.64672       -3.48437       -0.03732
B          1.21913       -4.18564        0.19197
B          2.63022       -1.96435       -0.35434
B          4.15037       -2.57487        0.11459
B          4.12823       -0.73130       -0.34918
B          1.16701       -2.56487       -0.57827
B          1.07342        2.63405       -0.59326
B         -3.24915        0.05966       -0.62702
B          1.06250       -0.77899       -0.78379
B         -4.54990        2.35000        0.52686
B          5.19015        1.87578        0.65105
B          5.25847        0.24202        0.40326
B          5.34126       -1.60048        0.58115
B          6.41469       -0.56658        1.18657
B          6.36741        0.95051        1.23175
B         -1.75416       -0.83633       -0.83132
B          2.59279       -0.87846       -0.62464
B         -0.39968        1.78898       -0.90802
B         -5.93123        1.51636        0.71112
B         -6.05281       -0.12910        0.76443
B         -5.82290       -1.76755        0.77880
B         -0.08011        0.16902       -0.15825
