45
isomer_1977.log	Energy: -110963.5591783
B         -2.61568       -1.57475       -0.49394
B         -2.63157       -3.21620       -0.12921
B         -1.23755       -4.06785        0.11197
B          0.23303       -3.25069       -0.42400
B         -1.14275       -0.70029       -0.78492
B          1.73165       -0.76875       -0.85797
B          1.60924       -4.06170        0.26350
B         -4.06247       -0.68129       -0.41855
B          1.62780       -2.37699       -0.31279
B         -4.02826       -2.37813        0.02258
B          0.17477       -4.70682        0.39045
B          3.05260       -3.23476        0.29213
B          3.10399       -1.60863       -0.25895
B          4.57250       -0.82077        0.25175
B          0.33307        1.80757       -0.90672
B          1.72224        2.47761       -0.26797
B          3.16741        1.65156       -0.22885
B          4.60399        0.79790        0.26669
B          4.46563        2.35621        0.52555
B          3.17910        3.26802        0.35217
B          1.76900        4.15085        0.33932
B          0.36255        3.40680       -0.36253
B          0.36066        4.84881        0.47867
B         -2.50134        3.47830       -0.06741
B         -1.07533        4.27051        0.18895
B         -2.54917        1.84449       -0.46237
B         -3.92962        2.69252        0.06939
B         -4.02963        1.00673       -0.40297
B         -1.10255        2.64220       -0.61114
B         -1.20113       -2.42523       -0.65793
B          3.21888       -0.07651       -0.64107
B         -1.11125        0.91893       -0.76997
B          4.37355       -2.37703        0.48185
B         -5.33890       -1.55237        0.52823
B         -5.30324        0.08051        0.30939
B         -5.27156        1.90917        0.56019
B         -6.45797        0.97179        1.14846
B         -6.48817       -0.58058        1.13412
B          1.76366        0.87689       -0.84277
B         -1.60169       -2.25939        1.41693
B          0.26597       -1.64175       -0.93856
B          5.89470       -1.69751        0.70918
B          6.12274        0.01094        0.79086
B          5.95862        1.74431        0.81155
B          0.01248       -1.15463       -0.60328
