45
isomer_1978.log	Energy: -112601.6349307
B          2.57714        1.81395       -0.43546
B          2.54016        3.46669       -0.06010
B          1.14560        4.29613        0.15414
B         -0.29788        3.46128       -0.38964
B          1.15120        1.02869       -0.73869
B         -1.77345        0.91131       -0.82564
B         -1.69400        4.22503        0.29094
B          4.03920        0.92233       -0.33290
B         -1.68493        2.55166       -0.28309
B          3.93136        2.60394        0.10344
B         -0.27207        4.86711        0.41774
B         -3.10159        3.37388        0.32553
B         -3.14280        1.73717       -0.21836
B         -4.58662        0.90143        0.30064
B         -0.30417       -1.56746       -0.82785
B         -1.77022       -2.45843       -0.23007
B         -3.16990       -1.62138       -0.17408
B         -4.57609       -0.74367        0.31772
B         -4.44753       -2.33669        0.60810
B         -3.12794       -3.27762        0.40144
B         -1.69046       -4.18652        0.39407
B         -0.27118       -3.45435       -0.31106
B         -0.23066       -4.82510        0.52731
B          2.62474       -3.39372        0.03168
B          1.22233       -4.27572        0.27371
B          2.70116       -1.69724       -0.38583
B          4.04365       -2.47430        0.18553
B          4.07845       -0.81547       -0.30141
B          1.22747       -2.65902       -0.59284
B          1.15961        2.68163       -0.61020
B         -3.24626        0.15816       -0.59345
B          1.04679       -0.81113       -0.76865
B         -4.44483        2.49777        0.54566
B          5.22864        1.82321        0.63331
B          5.25883        0.17039        0.42711
B          5.28836       -1.62164        0.69251
B          6.37942       -0.63285        1.28699
B          6.37650        0.88013        1.26884
B         -1.80430       -0.77156       -0.79984
B          1.87937       -0.25009       -0.58219
B         -0.28906        1.87572       -0.90204
B         -5.86214        1.69790        0.76121
B         -6.03671        0.06659        0.83302
B         -5.86066       -1.61566        0.85751
B         -0.21455       -2.52247       -1.27473
