45
isomer_0198.log	Energy: -113675.8869379
B          2.50932        1.75962       -0.48842
B          2.42783        3.33456        0.04006
B          1.04801        4.15726        0.12289
B         -0.35062        3.38496       -0.51468
B          1.13001        0.84861       -1.04211
B         -1.78604        0.83045       -0.91068
B         -1.74762        4.14436        0.24624
B          3.95643        0.91014       -0.21561
B         -1.80174        2.53274       -0.48824
B          3.81000        2.53695        0.29266
B         -0.34111        4.74596        0.35188
B         -3.09162        3.28075        0.26627
B         -3.17327        1.68056       -0.26008
B         -4.53224        0.79821        0.23726
B         -0.31295       -1.83077       -1.08763
B         -1.72485       -2.55128       -0.43117
B         -3.12916       -1.73311       -0.22123
B         -4.54683       -0.89375        0.14576
B         -4.32670       -2.49929        0.77063
B         -3.00884       -3.34016        0.27873
B         -1.64234       -4.16969        0.25837
B         -0.26927       -3.40284       -0.53874
B         -0.22025       -4.74818        0.35286
B          2.51327       -3.30380        0.03718
B          1.15626       -4.14924        0.10902
B          2.56285       -1.73064       -0.52989
B          3.86925       -2.48518        0.27634
B          3.98391       -0.84563       -0.22446
B          1.18562       -2.57769       -0.78886
B          1.11955        2.58984       -0.76518
B         -3.29356       -0.01594       -0.60899
B          1.17006       -0.85073       -1.06863
B         -4.40677        2.44467        0.74932
B          5.06108        1.73842        0.86430
B          5.19565        0.04409        0.52273
B          5.10420       -1.65207        0.84563
B          6.10473       -0.70707        1.60573
B          6.08476        0.81366        1.61249
B         -1.71797       -0.84340       -0.78890
B          2.60973        0.01592       -0.74585
B         -0.36890        1.82525       -1.11689
B         -5.47313        1.51889        1.30149
B         -5.62021       -0.03314        1.30454
B         -5.37373       -1.56944        1.33819
B         -0.34278       -0.00282       -1.09435
