45
isomer_1981.log	Energy: -113489.6625655
B          2.88559       -0.93810        1.21314
B          3.43946       -2.30572       -0.34303
B          2.25187       -3.37093        0.07095
B          0.57174       -2.96791        0.36733
B          1.33630       -0.35914        1.35547
B         -1.53132       -1.03084        1.09898
B         -0.44655       -3.99449       -0.50886
B          3.98527        0.06378        0.47372
B         -1.06338       -2.58752        0.43893
B          4.38777       -1.51140        0.79510
B          1.03794       -4.24178       -0.46764
B         -2.02311       -3.50398       -0.56290
B         -2.59305       -2.14334        0.12564
B         -4.04620       -1.50131       -0.48892
B         -0.66475        1.83670        1.20064
B         -2.20149        2.25385        0.71786
B         -3.40661        1.17853        0.32903
B         -4.62348       -0.00456       -0.03094
B         -4.72750        1.67908       -0.60230
B         -3.62289        2.74234       -0.10407
B         -2.44862        3.85658       -0.10039
B         -0.95961        3.36224        0.64226
B         -1.20562        4.70178       -0.23844
B          1.74230        3.69287       -0.18773
B          0.27376        4.33694       -0.11173
B          2.17733        2.17628        0.49251
B          3.05782        2.95982       -0.74191
B          3.67417        1.60992        0.04752
B          0.68975        2.83553        0.70707
B          1.67768       -2.12417        1.35005
B         -3.18194       -0.55829        0.62087
B          0.99127        1.17067        1.21604
B         -3.53561       -3.04135       -1.04729
B          4.47816       -1.15742       -0.91914
B          4.20855        0.53121       -1.12718
B          4.02467        2.14332       -1.63510
B          4.85343        1.08869       -2.48683
B          5.04270       -0.35486       -2.17862
B         -1.87117        0.55772        0.94427
B          3.27724       -2.62233        1.28682
B          0.07320       -1.68501        1.36019
B         -4.82383       -2.42638       -1.53927
B         -5.38505       -0.97761       -1.41042
B         -5.50863        0.54988       -1.25305
B         -0.26757        0.08070        1.23136
