45
isomer_1982.log	Energy: -112021.6384913
B          2.56263        1.74139       -0.49267
B          2.54539        3.37648       -0.10052
B          1.13464        4.19467        0.15862
B         -0.32019        3.35602       -0.38705
B          1.10738        0.84132       -0.79434
B         -1.76803        0.85091       -0.85857
B         -1.71092        4.12650        0.31762
B          4.02795        0.87722       -0.43613
B         -1.69610        2.45163       -0.28679
B          3.95970        2.56536        0.03348
B         -0.28984        4.79924        0.45154
B         -3.13664        3.26921        0.33623
B         -3.15577        1.65179       -0.24190
B         -4.60600        0.82500        0.25943
B         -0.31620       -1.69445       -0.95424
B         -1.68917       -2.40396       -0.32312
B         -3.15111       -1.60906       -0.26630
B         -4.60369       -0.79400        0.24731
B         -4.43208       -2.35318        0.47963
B         -3.12735       -3.23488        0.28756
B         -1.69920       -4.08772        0.25616
B         -0.31068       -3.30282       -0.43687
B         -0.27619       -4.75833        0.38003
B          2.55495       -3.31938       -0.15062
B          1.14655       -4.14538        0.09622
B          2.56751       -1.67856       -0.51826
B          3.96694       -2.50632       -0.00447
B          4.03036       -0.81115       -0.44876
B          1.13740       -2.50372       -0.67653
B          1.13016        2.56474       -0.63861
B         -3.23984        0.12421       -0.64935
B          1.10969       -0.77823       -0.80646
B         -4.43884        2.38102        0.51506
B          5.28879        1.75884        0.52171
B          5.28652        0.12946        0.27562
B          5.29373       -1.70340        0.49581
B          6.46210       -0.75139        1.09654
B          6.45989        0.80129        1.10816
B         -1.76568       -0.79507       -0.87089
B          1.93704       -0.81835        1.95333
B         -0.32113        1.75557       -0.92843
B         -5.94480        1.66616        0.73502
B         -6.13692       -0.04781        0.78865
B         -5.93664       -1.77748        0.77984
B          0.36368       -0.23337       -0.30268
