45
isomer_1985.log	Energy: -111348.2841036
B          2.57317        1.75030       -0.44520
B          2.55284        3.38860       -0.06680
B          1.14009        4.20889        0.17411
B         -0.31033        3.36571       -0.37632
B          1.12036        0.84773       -0.75115
B         -1.75443        0.85673       -0.83871
B         -1.70668        4.14199        0.31065
B          4.03795        0.88666       -0.36963
B         -1.68704        2.46215       -0.27968
B          3.96598        2.57865        0.08537
B         -0.28669        4.81584        0.45047
B         -3.13254        3.28486        0.32485
B         -3.14707        1.66269       -0.23996
B         -4.60135        0.84006        0.25647
B         -0.30200       -1.68931       -0.90148
B         -1.68005       -2.39357       -0.27561
B         -3.14238       -1.59825       -0.23723
B         -4.59902       -0.77898        0.25783
B         -4.42937       -2.33618        0.50447
B         -3.12317       -3.21942        0.33030
B         -1.69485       -4.07246        0.31753
B         -0.30074       -3.29332       -0.37074
B         -0.27293       -4.74199        0.45848
B          2.56248       -3.30744       -0.06119
B          1.15209       -4.13140        0.18110
B          2.57809       -1.66974       -0.44233
B          3.97328       -2.49317        0.08962
B          4.04038       -0.80175       -0.36822
B          1.14927       -2.49621       -0.60531
B          1.14197        2.57239       -0.60955
B         -3.22792        0.13177       -0.63537
B          1.12270       -0.77186       -0.74979
B         -4.43618        2.39815        0.50051
B          5.29104        1.77623        0.59103
B          5.29068        0.14486        0.35846
B          5.29603       -1.68610        0.59393
B          6.45954       -0.72911        1.19616
B          6.45731        0.82361        1.19486
B         -1.75206       -0.78929       -0.83733
B          0.91255       -0.64683        1.34851
B         -0.30696        1.76081       -0.90437
B         -5.94391        1.68512        0.71422
B         -6.13655       -0.02835        0.78052
B         -5.93628       -1.75803        0.78770
B          1.09267       -0.95102       -1.44118
