45
isomer_1986.log	Energy: -109650.8244563
B         -2.57604       -1.52242       -0.51825
B         -2.62196       -3.16257       -0.15027
B         -1.24399       -4.03763        0.09922
B          0.24297       -3.24709       -0.43147
B         -1.08689       -0.67411       -0.80407
B          1.78621       -0.79230       -0.86342
B          1.60174       -4.08027        0.26416
B         -4.00753       -0.60398       -0.45151
B          1.65207       -2.39735       -0.31546
B         -4.00467       -2.30021       -0.00677
B          0.15576       -4.70027        0.38566
B          3.05901       -3.27829        0.29792
B          3.14103       -1.65445       -0.25623
B          4.62052       -0.89096        0.25978
B          0.43255        1.80765       -0.92401
B          1.83008        2.45499       -0.28009
B          3.26057        1.60421       -0.23247
B          4.67987        0.72695        0.27158
B          4.56721        2.28796        0.52660
B          3.29744        3.22145        0.34530
B          1.90287        4.12845        0.32401
B          0.48708        3.40728       -0.38295
B          0.50614        4.85090        0.45530
B         -2.37650        3.52880       -0.10148
B         -0.93825        4.29683        0.15998
B         -2.45067        1.89523       -0.49334
B         -3.81875        2.76807        0.03018
B         -3.94563        1.08326       -0.43921
B         -0.98982        2.66755       -0.63691
B         -1.17562       -2.39752       -0.67384
B          3.28413       -0.12535       -0.64092
B         -1.02752        0.94435       -0.79227
B          4.39366       -2.44307        0.49211
B         -5.30322       -1.45090        0.49101
B         -5.23836        0.18065        0.26902
B         -5.17630        2.00902        0.51624
B         -6.38144        1.09349        1.10081
B         -6.43836       -0.45815        1.08950
B          1.84655        0.85257       -0.85143
B         -2.75618       -1.50101        1.97403
B          0.30608       -1.64006       -0.94915
B          5.92523       -1.78942        0.72523
B          6.18234       -0.08499        0.80450
B          6.04807        1.65101        0.82089
B         -1.65147       -2.22832       -0.50752
