45
isomer_1987.log	Energy: -113461.3424269
B         -2.41283        1.66091        0.51773
B         -2.42728        3.30961        0.25739
B         -1.06014        4.15595        0.09508
B          0.38930        3.42977        0.67327
B         -0.90393        0.73383        0.80381
B          1.74834        0.86688        0.82338
B          1.73157        4.18334       -0.17024
B         -3.87677        0.85541        0.31683
B          1.79315        2.56275        0.53529
B         -3.80238        2.49971       -0.04449
B          0.32441        4.75964       -0.21929
B          3.08998        3.31476       -0.27316
B          3.17416        1.73877        0.18233
B          4.52246        0.81233       -0.25382
B          0.27912       -1.64080        1.09386
B          1.64040       -2.47842        0.49607
B          3.02212       -1.68816        0.14890
B          4.47368       -0.85795       -0.21583
B          4.23937       -2.50158       -0.73809
B          2.94655       -3.30704       -0.13661
B          1.58458       -4.18518        0.06675
B          0.24267       -3.37048        0.71419
B          0.20127       -4.84463        0.13328
B         -2.39831       -3.26788       -0.11351
B         -1.19968       -4.17349        0.26664
B         -2.10500       -1.50885       -0.18022
B         -3.59503       -2.40852       -0.65010
B         -3.72135       -0.87232       -0.05787
B         -1.24139       -2.53279        0.92636
B         -1.05636        2.54151        0.77230
B          3.16399        0.02153        0.49814
B         -0.66058       -0.68793       -0.05088
B          4.37282        2.47510       -0.79208
B         -5.09285        1.76332       -0.57211
B         -4.97374        0.06017       -0.67925
B         -4.81476       -1.56347       -1.21343
B         -5.99378       -0.58878       -1.70855
B         -6.13767        0.88384       -1.39578
B          1.58997       -0.75249        0.70894
B         -1.28095       -0.97413        1.55291
B          0.42947        1.75791        1.09319
B          5.41113        1.50600       -1.37321
B          5.55475       -0.03719       -1.34538
B          5.29918       -1.59736       -1.34212
B         -2.46967       -0.05362        0.84938
