45
isomer_1988.log	Energy: -112658.6808187
B         -2.72295        1.81300        0.36681
B         -2.54358        3.44336       -0.00949
B         -1.11976        4.27805       -0.22359
B          0.30044        3.49071        0.34021
B         -1.45715        0.93853        0.62819
B          1.82496        0.88481        0.86721
B          1.69727        4.18327       -0.36660
B         -4.05465        0.90817        0.30794
B          1.73606        2.55338        0.25179
B         -3.97448        2.53681       -0.17314
B          0.30047        4.77066       -0.48671
B          3.09512        3.32930       -0.38408
B          3.17172        1.73222        0.20161
B          4.61617        0.85225       -0.29105
B          0.40362       -1.81796        1.03757
B          1.82180       -2.51758        0.24414
B          3.20073       -1.68281        0.22322
B          4.58522       -0.82103       -0.27388
B          4.51080       -2.42102       -0.57188
B          3.11823       -3.31596       -0.35122
B          1.70209       -4.21138       -0.35003
B          0.25183       -3.50284        0.33509
B          0.24236       -4.78805       -0.43258
B         -2.68405       -3.45472        0.02059
B         -1.28405       -4.30749       -0.19888
B         -2.75625       -1.74019        0.40634
B         -4.04663       -2.48296       -0.13988
B         -4.08159       -0.87977        0.30990
B         -1.38627       -2.72052        0.57385
B         -1.25245        2.74509        0.54040
B          3.28597        0.09340        0.62339
B         -1.38138       -0.79811        0.73226
B          4.52708        2.47555       -0.61365
B         -5.21477        1.76119       -0.66963
B         -5.22818        0.08906       -0.42320
B         -5.24182       -1.63282       -0.63418
B         -6.27204       -0.67758       -1.22431
B         -6.32517        0.77844       -1.26628
B          1.85493       -0.83663        0.88918
B         -0.92673        0.74349        1.65324
B          0.34945        1.90755        0.93421
B          5.78064        1.54957       -0.77163
B          5.92227        0.01770       -0.78974
B          5.75665       -1.54420       -0.77981
B         -0.10197       -1.72193       -0.06171
