45
isomer_0199.log	Energy: -112014.1447714
B          2.60891       -1.61729        0.40336
B          2.60755       -3.24991        0.00068
B          1.20442       -4.08259       -0.25362
B         -0.25592       -3.26427        0.30797
B          1.14567       -0.73598        0.72138
B         -1.72889       -0.77906        0.80625
B         -1.64282       -4.04614       -0.39167
B          4.06378       -0.73597        0.34191
B         -1.64279       -2.37513        0.22353
B          4.01146       -2.42173       -0.13820
B         -0.21514       -4.70161       -0.54022
B         -3.07836       -3.20520       -0.39442
B         -3.11182       -1.59187        0.19437
B         -4.57503       -0.77860       -0.29108
B         -0.30566        1.78216        0.90807
B         -1.69122        2.47988        0.29149
B         -3.14434        1.66859        0.24002
B         -4.59118        0.84020       -0.26842
B         -4.43914        2.40273       -0.49179
B         -3.14324        3.29812       -0.30338
B         -1.72476        4.16711       -0.27669
B         -0.32233        3.39378        0.40118
B         -0.31047        4.85483       -0.40643
B          2.54076        3.44515        0.09441
B          1.12123        4.25647       -0.13688
B          2.57479        1.80225        0.45123
B          3.96087        2.64935       -0.06721
B          4.04694        0.95219        0.36554
B          1.13651        2.60987        0.62518
B          1.18707       -2.45799        0.55423
B         -3.21042       -0.06801        0.61238
B          1.12952        0.88337        0.74405
B         -4.39192       -2.33091       -0.55806
B          5.32764       -1.59684       -0.63073
B          5.30849        0.03078       -0.37399
B          5.29310        1.86498       -0.58226
B          6.46790        0.93037       -1.19760
B          6.48339       -0.62212       -1.21934
B         -1.74531        0.86672        0.82929
B          1.03765       -0.48312       -0.37220
B         -0.27125       -1.66745        0.85978
B         -5.90753       -1.63202       -0.76250
B         -6.11967        0.07993       -0.80356
B         -5.93915        1.81170       -0.78490
B          0.25073       -2.62670        1.26887
