45
isomer_1990.log	Energy: -111956.4777625
B          2.56619        1.78067       -0.45397
B          2.54077        3.42031       -0.08179
B          1.12554        4.23672        0.15783
B         -0.32270        3.38652       -0.38751
B          1.11607        0.87200       -0.75459
B         -1.75884        0.87091       -0.83846
B         -1.72080        4.16067        0.29830
B          4.03399        0.92230       -0.37700
B         -1.69621        2.47867       -0.28564
B          3.95685        2.61576        0.07163
B         -0.30293        4.83987        0.43372
B         -3.14371        3.29876        0.31762
B         -3.15345        1.67441       -0.24098
B         -4.60428        0.84874        0.26047
B         -0.29784       -1.67041       -0.89341
B         -1.67269       -2.37695       -0.26307
B         -3.13766       -1.58646       -0.22582
B         -4.59644       -0.77026        0.26799
B         -4.42118       -2.32592        0.52035
B         -3.11222       -3.20538        0.34785
B         -1.68102       -4.05361        0.33649
B         -0.29045       -3.27236       -0.35655
B         -0.25665       -4.71776        0.47814
B          2.57320       -3.27558       -0.05067
B          1.16593       -4.10339        0.19659
B          2.58275       -1.63930       -0.43807
B          3.98141       -2.45596        0.09521
B          4.04217       -0.76608       -0.36916
B          1.15654       -2.47124       -0.59604
B          1.13199        2.59725       -0.61960
B         -3.22960        0.14172       -0.63045
B          1.12391       -0.74755       -0.74706
B         -4.44411        2.40831        0.49835
B          5.28529        1.81978        0.57863
B          5.29018        0.18755        0.35229
B          5.30205       -1.64248        0.59472
B          6.46308       -0.67925        1.19180
B          6.45556        0.87344        1.18458
B         -1.75087       -0.77508       -0.83081
B          1.19254       -0.81280        1.23656
B         -0.31455        1.77964       -0.90944
B         -5.94912        1.69097        0.71673
B         -6.13585       -0.02287        0.78981
B         -5.92969       -1.75182        0.80333
B          0.83683       -1.78242       -1.37890
