45
isomer_1991.log	Energy: -113344.6960772
B         -2.63374       -1.56852       -0.52161
B         -2.56046       -3.19384       -0.00937
B         -1.15469       -3.89472        0.24544
B          0.26874       -3.35378       -0.63166
B         -1.16229       -0.81934       -0.92686
B          1.76360       -0.82024       -1.06995
B          1.59884       -4.05954        0.37907
B         -4.02843       -0.77610       -0.37901
B          1.56842       -2.33296       -0.26151
B         -3.91512       -2.37791        0.18558
B          0.20643       -4.58807        0.47745
B          2.94819       -3.16598        0.44056
B          3.10835       -1.69125       -0.21276
B          4.49070       -0.76529        0.27622
B          0.27272        1.74883       -0.89632
B          1.71381        2.53265       -0.47762
B          3.16347        1.75194       -0.30424
B          4.64561        0.89703       -0.03151
B          4.37004        2.49884        0.62490
B          3.00483        3.30483        0.25370
B          1.59712        4.12737        0.27598
B          0.21917        3.33143       -0.41198
B          0.16581        4.71462        0.39358
B         -2.60113        3.28397        0.00316
B         -1.22633        4.12128        0.16505
B         -2.67011        1.66912       -0.56888
B         -3.96864        2.43546        0.22454
B         -4.10320        0.88315       -0.42079
B         -1.26998        2.47650       -0.52857
B         -1.24295       -2.51843       -0.85376
B          3.29435        0.03522       -0.64311
B         -1.22311        0.80019       -0.75633
B          4.33197       -2.37917        0.78190
B         -5.14078       -1.63057        0.81591
B         -5.20993        0.01952        0.47074
B         -5.22654        1.70422        0.72889
B         -6.30452        0.75383        1.39783
B         -6.24615       -0.72735        1.45112
B          1.78280        0.82297       -0.90128
B          0.08467       -1.49123        0.12300
B          0.32102       -1.83997       -1.54698
B          5.53382       -1.52067        1.20515
B          5.70001        0.03072        1.17987
B          5.45356        1.58656        1.16863
B          0.28007       -0.01535       -0.91417
