45
isomer_1992.log	Energy: -113455.9603798
B          2.57928       -1.59950        0.44189
B          2.55428       -3.31607        0.01324
B          1.25393       -4.12827        0.21715
B         -0.22889       -3.33252        0.96409
B          1.23360       -0.71327        0.82596
B         -1.57027       -0.76220        0.52191
B         -1.52685       -4.15746        0.01829
B          3.88064       -0.83005        0.05103
B         -1.37915       -2.41261        0.04609
B          3.82139       -2.44152       -0.30779
B         -0.14969       -4.72594        0.10923
B         -2.84000       -3.31057       -0.28671
B         -2.99353       -1.75917        0.15468
B         -4.41142       -0.89170       -0.22004
B         -0.34495        1.81491        1.24092
B         -1.73882        2.56159        0.52926
B         -3.10693        1.73020        0.25292
B         -4.33719        0.76656       -0.44208
B         -4.33168        2.44711       -0.77057
B         -3.04734        3.31550       -0.21298
B         -1.69282        4.16416       -0.12969
B         -0.30899        3.43988        0.70335
B         -0.27626        4.72807       -0.24768
B          2.49166        3.40088        0.04691
B          1.14024        4.16809        0.02022
B          2.51638        1.68227        0.60729
B          3.75302        2.54076       -0.24221
B          3.85724        0.93313        0.08196
B          1.17369        2.59091        0.77038
B          1.13540       -2.42527        0.46726
B         -3.14644       -0.02567        0.48573
B          1.18785        0.94774        1.08925
B         -4.14471       -2.52451       -0.82735
B          5.11802       -1.58189       -0.89827
B          5.11520        0.07466       -0.51396
B          5.04014        1.72593       -0.84301
B          6.08385        0.83668       -1.58692
B          6.11522       -0.66107       -1.60098
B         -1.76357        0.90697        1.00314
B         -0.26079       -0.00511        1.28564
B         -0.27999       -1.73440        1.50658
B         -5.22778       -1.59428       -1.39116
B         -5.49242       -0.07094       -1.39307
B         -5.37854        1.51089       -1.35786
B         -0.07200       -1.28291       -0.18202
