45
isomer_1994.log	Energy: -113428.1883218
B          2.62004       -1.60494        0.42028
B          2.60427       -3.29802        0.15826
B          1.20405       -4.09495        0.09341
B         -0.26173       -3.35720        0.75894
B          1.14570       -0.80234        0.55779
B         -1.61079       -0.82793        0.43236
B         -1.64640       -4.12150       -0.09957
B          4.05001       -0.84198        0.30069
B         -1.72302       -2.54054        0.43024
B          3.95619       -2.43593       -0.20681
B         -0.20592       -4.63172       -0.19665
B         -3.05834       -3.32968       -0.17355
B         -3.10575       -1.68668        0.19126
B         -4.50837       -0.84872       -0.20045
B         -0.27649        1.65122        1.12865
B         -1.72752        2.53958        0.43080
B         -3.11111        1.68611        0.19615
B         -4.50990        0.84610       -0.20183
B         -4.39195        2.50282       -0.69834
B         -3.06207        3.32881       -0.17147
B         -1.64898        4.12052       -0.09785
B         -0.26215        3.35363        0.75062
B         -0.20900        4.63468       -0.19464
B          2.60453        3.30029        0.15843
B          1.20089        4.09509        0.09250
B          2.62160        1.60852        0.41915
B          3.95762        2.43971       -0.20496
B          4.05091        0.84344        0.29873
B          1.26027        2.51023        0.63476
B          1.25833       -2.50933        0.63202
B         -3.22511       -0.00097        0.50133
B          1.15288        0.80079        0.55942
B         -4.38798       -2.50441       -0.69979
B          5.17235       -1.68768       -0.81451
B          5.22886        0.00019       -0.54245
B          5.17042        1.68740       -0.81643
B          6.25586        0.74565       -1.51370
B          6.25799       -0.74703       -1.51132
B         -1.61900        0.82736        0.44020
B         -0.21551       -0.00208        1.58483
B         -0.27730       -1.65611        1.13421
B         -5.43729       -1.56629       -1.27111
B         -5.63338       -0.00162       -1.25560
B         -5.43913        1.56400       -1.27171
B         -0.21858        0.01154       -0.16228
