45
isomer_1995.log	Energy: -113434.6988291
B          2.66757        1.58191       -0.36017
B          2.59238        3.26222        0.08614
B          1.21292        4.10145        0.18224
B         -0.24351        3.26729       -0.21033
B          1.20992        0.69600       -0.60003
B         -1.69371        0.75557       -1.08535
B         -1.62562        4.18510        0.11882
B          4.10021        0.87565       -0.40751
B         -1.68736        2.49205       -0.52030
B          3.99197        2.41746        0.26023
B         -0.21086        4.77015        0.27181
B         -3.01053        3.29740        0.11727
B         -3.12183        1.75311       -0.40384
B         -4.40515        0.83135        0.26136
B         -0.35365       -1.73379       -0.93704
B         -1.69876       -2.50501       -0.27402
B         -3.07047       -1.69287        0.06145
B         -4.53994       -0.82688        0.01440
B         -4.42087       -2.47102        0.71159
B         -3.04808       -3.30231        0.37490
B         -1.63816       -4.14492        0.34873
B         -0.30735       -3.37652       -0.49100
B         -0.22478       -4.72043        0.36780
B          2.52002       -3.23777       -0.05948
B          1.16781       -4.11628        0.04562
B          2.60388       -1.63161       -0.67798
B          3.87924       -2.36243        0.14600
B          4.01978       -0.79902       -0.41881
B          1.21247       -2.55681       -0.68124
B          1.27354        2.45525       -0.33390
B         -3.13222       -0.00945       -0.47226
B          1.13059       -0.83852       -1.03784
B         -4.42637        2.52871        0.45963
B          5.28679        1.67204        0.69534
B          5.31268       -0.00441        0.33817
B          5.15322       -1.65646        0.67782
B          6.30438       -0.76777        1.33188
B          6.39195        0.71926        1.29727
B         -1.56548       -0.74786       -0.09628
B         -0.17826        0.04586        0.15266
B         -0.25528        1.64102       -0.63703
B         -5.58982        1.64148        0.90702
B         -5.74357        0.07371        0.98213
B         -5.51297       -1.48495        1.07705
B         -0.32672       -0.07691       -1.58292
