45
isomer_1996.log	Energy: -113510.9146320
B          2.56208        1.73934       -0.90655
B          2.34113        3.03968        0.29917
B          0.92716        3.86235        0.38250
B         -0.40452        3.28742       -0.50268
B          1.03031        0.79307       -0.96546
B         -1.80941        0.75521       -0.80110
B         -1.84736        4.00873        0.20061
B          3.98200        0.91905       -0.62811
B         -1.87380        2.42720       -0.55496
B          3.84527        2.63839        0.24956
B         -0.43918        4.50660        0.54584
B         -3.22791        3.22460        0.05898
B         -3.33047        1.65802       -0.44722
B         -4.74311        0.78022       -0.15957
B         -0.36566       -1.67562       -0.86244
B         -1.73753       -2.45683       -0.21647
B         -3.20385       -1.75640       -0.19233
B         -4.56932       -0.83396        0.23306
B         -4.46824       -2.47473        0.72296
B         -3.05725       -3.26650        0.41227
B         -1.63841       -4.09116        0.40059
B         -0.32596       -3.34667       -0.40608
B         -0.22779       -4.69340        0.41872
B          2.52354       -3.32769       -0.18951
B          1.18319       -4.10830        0.02905
B          2.53366       -1.62304       -0.47867
B          3.89818       -2.47992       -0.05433
B          3.96141       -0.82951       -0.55264
B          1.14181       -2.54491       -0.70279
B          1.05898        2.45539       -0.68077
B         -3.32900       -0.06309       -0.64413
B          1.00928       -0.80128       -0.72179
B         -4.60359        2.40776        0.43686
B          4.84840        1.62992        0.84270
B          5.22057        0.04534        0.17619
B          5.14873       -1.66885        0.48374
B          6.13945       -0.78752        1.24531
B          5.90912        0.65043        1.51208
B         -1.76562       -0.83824       -0.81914
B          2.95522        1.34505        0.82924
B         -0.41672        1.59810       -0.96338
B         -5.66832        1.47232        0.96659
B         -5.89675       -0.05839        0.99924
B         -5.67912       -1.59309        1.07755
B          2.40942        0.07493       -0.07268
