45
isomer_1998.log	Energy: -113675.8867170
B         -2.56282       -1.73079       -0.53021
B         -2.51297       -3.30381        0.03762
B         -1.15597       -4.14903        0.10965
B          0.26945       -3.40276       -0.53848
B         -1.16999       -0.85086       -1.06849
B          1.71820       -0.84311       -0.78835
B          1.64253       -4.16949        0.25861
B         -3.98399       -0.84597       -0.22443
B          1.72477       -2.55106       -0.43082
B         -3.86914       -2.48532        0.27645
B          0.22055       -4.74789        0.35331
B          3.00901       -3.34001        0.27852
B          3.12929       -1.73284       -0.22146
B          4.54715       -0.89355        0.14498
B          0.36888        1.82526       -1.11691
B          1.80155        2.53275       -0.48809
B          3.17317        1.68071       -0.26003
B          4.53217        0.79834        0.23728
B          4.40637        2.44466        0.74977
B          3.09132        3.28076        0.26659
B          1.74728        4.14420        0.24687
B          0.35044        3.38486       -0.51410
B          0.34075        4.74559        0.35269
B         -2.42813        3.33444        0.03960
B         -1.04838        4.15699        0.12317
B         -2.50929        1.75937       -0.48876
B         -3.81024        2.53684        0.29203
B         -3.95650        0.90990       -0.21594
B         -1.11962        2.58990       -0.76527
B         -1.18556       -2.57781       -0.78846
B          3.29364       -0.01564       -0.60937
B         -1.12986        0.84874       -1.04250
B          4.32694       -2.49914        0.77001
B         -5.10412       -1.65225        0.84554
B         -5.19587        0.04395        0.52242
B         -5.06118        1.73819        0.86401
B         -6.08472        0.81349        1.61245
B         -6.10450       -0.70723        1.60582
B          1.78599        0.83066       -0.91111
B         -2.60974        0.01580       -0.74611
B          0.31312       -1.83070       -1.08723
B          5.37403       -1.56923        1.33739
B          5.62023       -0.03295        1.30420
B          5.47286        1.51893        1.30172
B          0.34290       -0.00288       -1.09457
