45
isomer_1999.log	Energy: -113498.3422156
B          2.36507       -1.55014       -0.14299
B          2.45840       -3.29927       -0.17024
B          1.06988       -4.10540       -0.26925
B         -0.36885       -3.36331        0.35141
B          1.02086       -0.81461        0.69613
B         -1.73714       -0.80976        0.77521
B         -1.76426       -4.14127       -0.27282
B          3.83788       -0.89160        0.37273
B         -1.78746       -2.48734        0.39857
B          3.84189       -2.49951       -0.27760
B         -0.37315       -4.72705       -0.45462
B         -3.15613       -3.28347       -0.16840
B         -3.23265       -1.71996        0.30657
B         -4.66697       -0.82922        0.09424
B         -0.37951        1.70898        0.85333
B         -1.78643        2.48772        0.39694
B         -3.23165        1.72064        0.30573
B         -4.66565        0.82990        0.09078
B         -4.53148        2.47065       -0.49772
B         -3.15473        3.28362       -0.17074
B         -1.76266        4.14109       -0.27433
B         -0.36776        3.36380        0.35276
B         -0.37138        4.72682       -0.45465
B          2.45977        3.29946       -0.16744
B          1.07146        4.10529       -0.26821
B          2.36548        1.55044       -0.14122
B          3.84254        2.49878       -0.27688
B          3.83793        0.89038        0.37234
B          1.11411        2.56861        0.44146
B          1.11327       -2.56823        0.43925
B         -3.27049        0.00052        0.67903
B          1.02061        0.81456        0.69554
B         -4.53269       -2.47037       -0.49504
B          5.18960       -1.70655       -0.44344
B          5.12468       -0.00071       -0.25631
B          5.18987        1.70509       -0.44364
B          6.44130        0.76466       -0.70146
B          6.44131       -0.76631       -0.70102
B         -1.73696        0.81051        0.77670
B          2.54285       -0.00093        1.11390
B         -0.37992       -1.70831        0.85171
B         -5.66915       -1.54311       -0.91191
B         -5.86363        0.00047       -0.88739
B         -5.66878        1.54411       -0.91387
B          2.11073        0.00033       -0.60313
