45
isomer_0002.log	Energy: -113674.6411145
B         -2.49736        1.76365        0.48223
B         -2.40988        3.34669       -0.03007
B         -1.02763        4.16184       -0.11206
B          0.37105        3.38048        0.51201
B         -1.12125        0.85096        1.02802
B          1.81146        0.82885        0.93925
B          1.77080        4.14341       -0.23405
B         -3.95041        0.92601        0.21574
B          1.81684        2.52967        0.50182
B         -3.79410        2.54820       -0.29556
B          0.36654        4.74893       -0.33977
B          3.11119        3.27188       -0.26325
B          3.17921        1.67430        0.26008
B          4.52186        0.77572       -0.27020
B          0.34693       -0.00010        1.07115
B          1.70062       -2.55703        0.40244
B          3.11511       -1.74060        0.20001
B          4.54972       -0.91246       -0.11217
B          4.31441       -2.51903       -0.75569
B          2.99812       -3.36427       -0.26751
B          1.62595       -4.18398       -0.24151
B          0.25427       -3.41294        0.56465
B          0.19400       -4.75041       -0.33596
B         -2.53586       -3.30382       -0.03449
B         -1.18453       -4.15310       -0.09242
B         -2.57826       -1.72352        0.54999
B         -3.88172       -2.47378       -0.27346
B         -3.99244       -0.83383        0.23050
B         -1.20032       -2.57467        0.77075
B         -1.10492        2.59187        0.75842
B          3.27977       -0.02093        0.59522
B         -1.17781       -0.85682        1.06425
B          4.42489        2.43669       -0.74134
B         -5.04721        1.75693       -0.86951
B         -5.19677        0.06409       -0.51954
B         -5.11402       -1.63132       -0.83823
B         -6.10931       -0.68058       -1.60317
B         -6.07890        0.83761       -1.61332
B          1.68438       -0.84103        0.65026
B         -2.60826        0.02124        0.75464
B          0.38505        1.81948        1.12343
B          5.49927        1.50707       -1.28423
B          5.63034       -0.04741       -1.28700
B          5.35900       -1.58171       -1.31788
B          0.30017       -1.82221        1.05752
