45
isomer_0020.log	Energy: -113454.8931017
B          2.52455       -1.73144        0.59457
B          2.47182       -3.21129       -0.26115
B          1.10699       -3.94207       -0.44861
B         -0.16810       -3.36042        0.53613
B          1.20861       -0.78437        0.66563
B         -1.69468       -0.76816        0.90657
B         -1.68880       -4.09731       -0.22761
B          3.93781       -0.83517        0.25168
B         -1.70543       -2.46047        0.41921
B          3.86177       -2.34115       -0.30208
B         -0.32471       -4.58295       -0.55800
B         -3.02846       -3.26305       -0.18008
B         -3.12888       -1.67305        0.36316
B         -4.53532       -0.79800       -0.00385
B         -0.30908        1.85646        0.97754
B         -1.71309        2.54496        0.40857
B         -3.13451        1.77041        0.27941
B         -4.51339        0.85998       -0.12747
B         -4.37121        2.49405       -0.70327
B         -3.01967        3.31099       -0.34271
B         -1.65545        4.17631       -0.38237
B         -0.28149        3.40923        0.39236
B         -0.24719        4.73119       -0.51253
B          2.54109        3.36478       -0.01725
B          1.17293        4.13931       -0.23092
B          2.56008        1.66558        0.59876
B          3.85077        2.53440       -0.10759
B          3.95029        0.93627        0.31131
B          1.19162        2.57819        0.57779
B          1.29533       -2.72861        1.13619
B         -3.26848        0.06143        0.68402
B          1.18525        0.87112        0.88985
B         -4.39843       -2.41158       -0.58178
B          5.20498       -1.54613       -0.68817
B          5.19716        0.08405       -0.26432
B          5.20271        1.73283       -0.55991
B          6.27248        0.85816       -1.24663
B          6.26689       -0.62554       -1.30459
B         -1.73658        0.88947        0.94665
B          1.03192       -2.13876       -0.48129
B         -0.23063       -1.71774        0.78827
B         -5.47329       -1.51515       -1.10931
B         -5.68290        0.03555       -1.11744
B         -5.50084        1.57116       -1.15711
B         -0.22445        0.05651        1.18833
