45
isomer_0200.log	Energy: -113521.6279211
B         -2.12400       -1.38961        0.58966
B         -2.23377       -3.11750        0.48024
B         -0.86431       -3.99667        0.34599
B          0.42838       -3.31913       -0.48901
B         -1.00606       -0.80558       -0.70571
B          1.76229       -0.74038       -0.78622
B          1.91583       -4.05541        0.13474
B         -3.86797       -0.98769       -0.40707
B          1.87035       -2.42078       -0.53193
B         -3.58824       -2.36700        0.62681
B          0.51924       -4.61813        0.44066
B          3.25501       -3.22171        0.01901
B          3.31831       -1.62182       -0.44579
B          4.71907       -0.73378       -0.17971
B          0.35007        1.75238       -0.97285
B          1.69562        2.51778       -0.21941
B          3.10779        1.74878       -0.11549
B          4.55112        0.90524        0.19105
B          4.38618        2.50597        0.79477
B          2.98637        3.30704        0.46806
B          1.58763        4.10951        0.45414
B          0.26824        3.40373       -0.43616
B          0.14935        4.69139        0.48473
B         -2.57631        3.35906       -0.19313
B         -1.22633        4.14400        0.05515
B         -2.52839        1.72747       -0.57556
B         -3.94002        2.50097       -0.03520
B         -3.96265        0.83211       -0.35159
B         -1.16175        2.58007       -0.80680
B         -1.09547       -2.50618       -0.67347
B          3.28768        0.09904       -0.66153
B         -1.02461        0.88258       -0.83382
B          4.59278       -2.37813        0.40922
B         -5.04066       -1.69959        0.77554
B         -5.25081       -0.11037        0.16199
B         -5.14013        1.61092        0.53850
B         -6.14817        0.63095        1.27538
B         -6.20904       -0.85721        1.26997
B          1.74913        0.88648       -0.82579
B         -2.60315       -1.89964       -1.00372
B          0.44677       -1.64293       -0.91723
B          5.65286       -1.42228        0.93557
B          5.84213        0.09839        0.99500
B          5.59293        1.63885        1.13285
B         -2.44326       -0.02117       -0.41185
