45
isomer_2000.log	Energy: -112266.0437690
B         -2.67892       -1.45080       -0.50336
B         -2.73165       -3.30082       -0.03649
B         -1.28184       -4.15863        0.19066
B          0.37486       -3.34113       -0.35542
B         -1.15546       -0.57169       -0.81082
B          1.87486       -0.73647       -0.84926
B          1.73136       -4.10986        0.33737
B         -4.11860       -0.57732       -0.38104
B          1.84850       -2.39349       -0.25810
B         -4.18819       -2.34476        0.11072
B          0.25023       -4.73391        0.44830
B          3.19520       -3.23766        0.35419
B          3.25783       -1.60941       -0.20802
B          4.68810       -0.76797        0.28792
B          0.35514        1.79186       -0.92953
B          1.76164        2.47788       -0.28984
B          3.22710        1.67597       -0.23236
B          4.68653        0.84213        0.27786
B          4.52664        2.41977        0.54035
B          3.18339        3.28408        0.33326
B          1.77292        4.12705        0.30802
B          0.37685        3.38947       -0.38608
B          0.37811        4.77045        0.43451
B         -2.45853        3.45494       -0.06675
B         -1.04912        4.21167        0.15972
B         -2.54601        1.81942       -0.46585
B         -3.86134        2.68956        0.07320
B         -4.01860        1.06642       -0.38489
B         -1.10901        2.61259       -0.62542
B         -1.32436       -2.39039       -0.64345
B          3.32698       -0.02536       -0.62005
B         -1.13321        0.89843       -0.78968
B          4.55421       -2.35665        0.56083
B         -5.41624       -1.43497        0.57722
B         -5.30678        0.19486        0.33371
B         -5.20201        1.96419        0.56384
B         -6.37758        1.09851        1.15639
B         -6.48727       -0.41645        1.16814
B          1.84907        0.89596       -0.84908
B         -2.92280       -1.91869        0.85320
B          0.41912       -1.52581       -0.96039
B          5.97383       -1.56681        0.75684
B          6.13985        0.09310        0.80712
B          5.95240        1.70878        0.80630
B         -0.33722       -2.51806       -0.79379
