45
isomer_2002.log	Energy: -112544.7297603
B          2.59375       -1.64936        0.38568
B          2.59346       -3.28391       -0.00908
B          1.19070       -4.12008       -0.25379
B         -0.26874       -3.30139        0.30961
B          1.13034       -0.76888        0.70522
B         -1.74378       -0.81619        0.80169
B         -1.65712       -4.08889       -0.38073
B          4.04693       -0.76601        0.31420
B         -1.65738       -2.41492        0.22636
B          3.99546       -2.45415       -0.15753
B         -0.22897       -4.74276       -0.53176
B         -3.09403       -3.25029       -0.38187
B         -3.12779       -1.63418        0.19924
B         -4.59424       -0.82563       -0.28435
B         -0.32434        1.74779        0.88547
B         -1.71347        2.44028        0.27101
B         -3.16546        1.62641        0.22922
B         -4.61294        0.79323       -0.26946
B         -4.46433        2.35490       -0.50100
B         -3.16916        3.25328       -0.32206
B         -1.75200        4.12468       -0.30520
B         -0.34565        3.35691        0.37085
B         -0.33936        4.81404       -0.44387
B          2.51612        3.41141        0.05250
B          1.09436        4.21931       -0.17710
B          2.55424        1.77031        0.41713
B          3.93688        2.61712       -0.11089
B          4.02743        0.92222        0.32973
B          1.11534        2.57645        0.59286
B          1.17389       -2.49161        0.54626
B         -3.22722       -0.10847        0.61025
B          1.11164        0.85054        0.72011
B         -4.40965       -2.37892       -0.54453
B          5.30833       -1.62954       -0.65925
B          5.28754       -0.00072       -0.41033
B          5.26834        1.83242       -0.62741
B          6.44222        0.89673       -1.24287
B          6.46015       -0.65582       -1.25715
B         -1.76280        0.82966        0.81682
B          1.15622       -1.02295        2.15133
B         -0.28449       -1.70195        0.85374
B         -5.92720       -1.68348       -0.74635
B         -6.14229        0.02791       -0.79485
B         -5.96453        1.76004       -0.78530
B          0.97360       -0.43554       -0.59255
