45
isomer_2005.log	Energy: -113429.4961048
B         -1.54841       -1.43121       -0.34673
B         -1.05506       -3.16448        0.42700
B         -0.36337       -4.23350       -0.75993
B          0.96289       -3.22701       -1.43611
B         -0.29009       -0.44782       -1.16661
B          1.39341       -0.50285       -0.41933
B          2.30721       -3.82251       -0.18610
B         -3.14360       -1.19280        0.20113
B          1.81928       -2.13351       -0.12351
B         -2.44394       -2.47458        0.84339
B          1.12383       -4.71697       -0.59633
B          3.44672       -2.67339        0.13271
B          3.13796       -1.10908       -0.12754
B          4.25254        0.11976        0.22937
B         -0.23266        1.86965       -1.33381
B          0.81340        2.77491       -0.34101
B          2.30438        2.24214        0.01572
B          3.65012        1.56672        0.76086
B          3.38645        3.24599        0.95654
B          1.94191        3.79753        0.37644
B          0.47805        4.40885        0.14052
B         -0.61776        3.48745       -0.91113
B         -1.01559        4.71320        0.01502
B         -3.38093        2.84904       -0.56345
B         -2.25066        3.87408       -0.44257
B         -2.98416        1.14326       -0.96317
B         -4.37257        1.75499       -0.12655
B         -3.98521        0.19061       -0.24078
B         -1.87654        2.30075       -1.20167
B         -0.64754       -2.57612       -1.22079
B          2.68663        0.59265       -0.23866
B         -1.46218        0.67811       -1.28772
B          4.56041       -1.60011        0.61344
B         -3.80859       -2.11335        1.51850
B         -4.63984       -0.84213        0.81059
B         -5.28315        0.70757        0.76456
B         -5.76860       -0.26832        1.86331
B         -5.06389       -1.51512        2.22923
B          1.03527        1.09135       -0.73225
B          0.66632       -3.37071        0.44351
B          0.80804       -1.61432       -1.65057
B          5.40654       -0.43522        1.16798
B          5.22295        1.10094        1.32727
B          4.67738        2.58922        1.40914
B          0.15270       -1.63366        0.17011
