45
isomer_2006.log	Energy: -112543.1776445
B          2.61794       -1.66446        0.39986
B          2.60988       -3.30091        0.01315
B          1.20313       -4.13186       -0.22637
B         -0.25211       -3.30376        0.33412
B          1.15882       -0.77574        0.71618
B         -1.71542       -0.80944        0.81508
B         -1.64462       -4.08828       -0.35128
B          4.07508       -0.78811        0.32292
B         -1.63676       -2.41137        0.24757
B          4.01553       -2.47831       -0.14046
B         -0.21958       -4.74941       -0.50018
B         -3.07769       -3.24315       -0.35544
B         -3.10361       -1.62406        0.21773
B         -4.56674       -0.81121       -0.26872
B         -0.28422        1.74841        0.88515
B         -1.67066        2.44420        0.26836
B         -3.12637        1.63677        0.23169
B         -4.57804        0.80777       -0.26178
B         -4.42249        2.36759       -0.50112
B         -3.12309        3.26091       -0.32759
B         -1.70196        4.12590       -0.31611
B         -0.29859        3.35505        0.36263
B         -0.28630        4.80811       -0.45925
B          2.56315        3.39491        0.04183
B          1.14491        4.20816       -0.19065
B          2.59407        1.75547        0.41451
B          3.98014        2.59335       -0.11874
B          4.06330        0.90024        0.33015
B          1.15900        2.56903        0.58737
B          1.19438       -2.49941        0.56567
B         -3.19576       -0.09591        0.62130
B          1.14752        0.84380        0.72312
B         -4.38944       -2.36659       -0.52139
B          5.33176       -1.66218       -0.64724
B          5.31860       -0.03208       -0.40632
B          5.30760        1.80004       -0.63241
B          6.47671        0.85599       -1.24415
B          6.48754       -0.69669       -1.25080
B         -1.72690        0.83653        0.82213
B          1.22266       -0.61066        1.73910
B         -0.26014       -1.70160        0.87038
B         -5.90396       -1.66522       -0.72547
B         -6.11128        0.04687       -0.78223
B         -5.92561        1.77820       -0.78134
B         -0.45040       -0.62687       -0.52096
