45
isomer_2008.log	Energy: -113581.3950956
B          2.80611       -1.71343       -0.58368
B          3.29716       -3.24639       -0.12301
B          2.00582       -3.94704       -0.12449
B          0.08471       -2.04518       -0.19669
B          2.44837       -0.13975        0.35465
B         -2.10648       -0.91456        1.50850
B         -1.00427       -3.44191       -0.31986
B          4.06780       -0.66989        0.02260
B         -1.49292       -2.02899        0.47677
B          4.49039       -2.21245       -0.33738
B          0.48609       -3.73589       -0.08534
B         -2.55392       -3.10486       -0.36633
B         -3.17664       -1.88997        0.50950
B         -4.65922       -1.16968        0.04234
B         -0.69257        1.25462        0.10965
B         -2.18593        2.04322        0.00169
B         -3.61107        1.36486        0.43041
B         -5.03913        0.42543        0.49222
B         -4.94701        2.01870       -0.34599
B         -3.61166        2.92393       -0.14186
B         -2.27200        3.81158       -0.28813
B         -0.78944        2.91165       -0.25823
B         -0.89990        4.48810       -0.37188
B          2.03476        3.26631       -0.00034
B          0.56363        3.96052       -0.24009
B          2.21738        1.61584        0.10572
B          3.56414        2.68329        0.09741
B          3.77122        1.02289        0.26940
B          0.73412        2.26075        0.02623
B          1.65456       -2.45806        0.52300
B         -3.63199       -0.25482        1.09643
B          0.83425        0.45920        0.03412
B         -4.12816       -2.69791       -0.58391
B          5.69639       -1.18128       -0.35315
B          5.27025        0.48339       -0.24386
B          5.06206        2.16514        0.03197
B          6.50138        1.47479       -0.12998
B          6.78208       -0.00414       -0.29330
B         -2.04208        0.50255        0.74253
B          1.29144       -1.00730       -0.76660
B         -0.55349       -0.53881        0.83786
B         -5.47655       -2.05637       -0.99242
B         -5.95877       -0.61182       -0.86080
B         -5.90468        0.93012       -0.76058
B          1.07376       -0.99639        1.05489
