45
isomer_2009.log	Energy: -113617.5187920
B         -2.16055        1.92832        0.24861
B         -1.69921        2.76713       -1.06326
B         -0.18518        3.30580       -1.16060
B          0.80342        3.01021        0.18998
B          0.17645        0.33773        0.32953
B          1.82421        0.73208        0.99075
B          2.47343        3.55141       -0.25991
B         -3.83448        1.33751        0.12951
B          2.13448        2.41572        1.03712
B         -3.21353        2.41877       -1.01574
B          1.21743        3.83756       -1.12215
B          3.71274        2.99842        0.49422
B          3.36716        1.38835        0.59181
B          4.65217        0.33338        0.20706
B          0.02286       -1.46761        0.52653
B          1.28620       -2.39766       -0.23238
B          2.83647       -1.90313       -0.00264
B          4.38672       -1.34164        0.03959
B          3.99766       -2.78266       -0.87400
B          2.49477       -3.44562       -0.65391
B          1.02170       -4.05005       -0.68112
B         -0.27265       -3.05890       -0.05662
B         -0.49236       -4.51552       -0.57434
B         -3.02980       -2.83826        0.35076
B         -1.77129       -3.78740       -0.06649
B         -2.86212       -1.22233        0.77956
B         -4.33927       -1.89605        0.40709
B         -4.19400       -0.21278        0.84028
B         -1.52943       -2.17082        0.72166
B         -0.43663        1.81679       -0.25673
B          3.17331       -0.32844        0.73780
B         -1.29374       -0.49735        1.04352
B          4.91442        2.05251        0.05876
B         -4.74060        1.90287       -1.12294
B         -5.34612        0.67324       -0.06895
B         -5.60731       -1.03571        0.01057
B         -6.54082       -0.18166       -0.83567
B         -6.07081        1.08039       -1.45096
B          1.51024       -0.83569        0.44123
B         -2.66610        0.52054        1.14168
B          0.50643        1.81159        1.38412
B          5.86211        1.01140       -0.55945
B          5.73838       -0.50970       -0.83819
B          5.22901       -1.94514       -1.17424
B         -1.05577        1.19241        1.36851
