45
isomer_2011.log	Energy: -112815.9150839
B          2.61361       -1.65362        0.37063
B          2.61456       -3.28734       -0.02755
B          1.21236       -4.12458       -0.27183
B         -0.24712       -3.30873        0.29555
B          1.14972       -0.77546        0.69429
B         -1.72420       -0.82622        0.79512
B         -1.63569       -4.09634       -0.39429
B          4.06569       -0.76848        0.29874
B         -1.63689       -2.42365        0.21631
B          4.01539       -2.45569       -0.17644
B         -0.20704       -4.74829       -0.54890
B         -3.07355       -3.25937       -0.39143
B         -3.10822       -1.64451        0.19311
B         -4.57633       -0.83661       -0.28651
B         -0.30752        1.73918        0.88206
B         -1.69838        2.43138        0.27122
B         -3.14951        1.61596        0.22998
B         -4.59683        0.78219       -0.26820
B         -4.45034        2.34451       -0.49670
B         -3.15591        3.24398       -0.31788
B         -1.73971        4.11694       -0.30140
B         -0.33144        3.34934        0.37085
B         -0.32806        4.80818       -0.44082
B          2.52977        3.40774        0.04817
B          1.10675        4.21451       -0.17752
B          2.57031        1.76593        0.40930
B          3.95116        2.61541       -0.11909
B          4.04431        0.91969        0.31784
B          1.13078        2.57007        0.58896
B          1.19496       -2.49781        0.53165
B         -3.20873       -0.11978        0.60747
B          1.12921        0.84389        0.71260
B         -4.39039       -2.38915       -0.55023
B          5.32655       -1.62855       -0.67847
B          5.30431       -0.00028       -0.42611
B          5.28271        1.83329       -0.63932
B          6.45668        0.90022       -1.25856
B          6.47634       -0.65228       -1.27611
B         -1.74505        0.81957        0.81373
B          1.45949       -1.32324        1.86319
B         -0.26383       -1.71045        0.84305
B         -5.90904       -1.69500       -0.74824
B         -6.12613        0.01625       -0.79282
B         -5.95031        1.74855       -0.77991
B         -0.07442        0.13861        0.01454
