45
isomer_2012.log	Energy: -113470.1452402
B          2.67171        1.69714       -0.79193
B          2.59763        3.29857       -0.26779
B          1.23980        4.18455       -0.15615
B         -0.21787        3.38294       -0.69106
B          1.23944        0.85012       -1.36915
B         -1.69931        0.87984       -0.95289
B         -1.52486        4.15137        0.17396
B          4.03566        0.84960       -0.24899
B         -1.66295        2.59209       -0.61311
B          3.88151        2.45978        0.12860
B         -0.15593        4.77891        0.12579
B         -2.87593        3.35163        0.29190
B         -3.02382        1.78260       -0.17643
B         -4.43477        0.89544        0.34065
B         -0.28369       -1.72402       -1.40965
B         -1.40208       -2.35439       -0.30399
B         -2.97238       -1.62596       -0.10417
B         -4.30841       -0.73389        0.54263
B         -4.05373       -2.34674        1.04580
B         -2.76987       -3.12089        0.44358
B         -1.38067       -4.06173        0.05885
B         -0.29066       -3.41654       -1.40244
B         -0.14539       -4.78629       -0.40608
B          2.01585       -2.98516        0.26846
B          1.23842       -4.16087       -0.44977
B          2.47048       -1.43341       -0.57753
B          3.28954       -2.10937        0.77530
B          3.84982       -0.82917       -0.12084
B          1.21625       -2.45815       -1.14020
B          1.27119        2.55122       -0.92351
B         -3.18955        0.06795       -0.47849
B          1.19602       -0.71451       -1.43059
B         -4.16518        2.55132        0.87352
B          4.99009        1.67738        1.00003
B          5.04631       -0.02592        0.82563
B          4.58454       -1.60476        1.41423
B          5.66259       -0.79381        2.13977
B          5.75320        0.71208        2.07541
B         -1.68298       -0.70249       -1.01963
B          0.10047       -2.95570        0.30796
B         -0.26460        1.84598       -1.27075
B         -5.08733        1.64504        1.59004
B         -5.33236        0.10187        1.66060
B         -5.11569       -1.44709        1.71091
B         -0.31050        0.08345       -1.48845
