45
isomer_2013.log	Energy: -113441.9630745
B         -2.45120        1.82300        0.46643
B         -2.37487        3.45142       -0.11168
B         -0.98049        4.21693       -0.28031
B          0.44031        3.42736        0.33834
B         -1.14757        0.95915        1.03346
B          1.77686        0.86257        0.73067
B          1.83291        4.13108       -0.42377
B         -3.73003        1.01809       -0.01567
B          1.84719        2.55084        0.45677
B         -3.79893        2.69105       -0.15884
B          0.45372        4.75137       -0.56345
B          3.19289        3.24649       -0.35148
B          3.21508        1.67967        0.16738
B          4.64517        0.72862        0.04654
B          0.27762       -1.65352        1.30367
B          1.55344       -2.48739        0.56618
B          3.02599       -1.74324        0.31804
B          4.41264       -0.90650       -0.21246
B          4.26608       -2.56265       -0.59734
B          2.83010       -3.27159       -0.16972
B          1.38130       -3.97905       -0.24482
B         -0.07505       -3.24138        0.39254
B          0.05067       -4.49932       -0.66321
B         -2.66147       -3.19380       -0.79787
B         -1.38447       -4.10442       -0.81329
B         -2.47424       -1.74151        0.39260
B         -3.73878       -2.13599       -0.65210
B         -3.68414       -0.64516       -0.00784
B         -1.81854       -3.42138        0.58959
B         -1.08920        2.68662        0.57211
B          3.25662       -0.02731        0.65592
B         -1.28500       -0.63239        1.02229
B          4.49810        2.36266       -0.69053
B         -5.12946        1.93508       -0.50847
B         -5.17656        0.23698       -0.07870
B         -5.16497       -1.31675       -0.68139
B         -6.37120       -0.47310       -0.99727
B         -6.24709        1.00870       -1.05967
B          1.68414       -0.78824        1.00734
B         -1.16978       -2.28417        1.41863
B          0.39928        1.88234        0.97250
B          5.52019        1.32918       -1.14723
B          5.69594       -0.21150       -1.10625
B          5.44684       -1.75425       -1.08457
B          0.24998        0.09543        0.96693
