45
isomer_2014.log	Energy: -112420.4341098
B         -2.56418       -1.79679       -0.45602
B         -2.51710       -3.44288       -0.05698
B         -1.12056       -4.29182        0.17191
B          0.30425       -3.45373       -0.37828
B         -1.14880       -1.04185       -0.79022
B          1.73246       -0.86378       -0.87168
B          1.69060       -4.18680        0.30966
B         -3.96130       -0.84278       -0.38693
B          1.67752       -2.51920       -0.29662
B         -3.90726       -2.52088        0.08817
B          0.30462       -4.82875        0.44336
B          3.08583       -3.30346        0.31985
B          3.11640       -1.68997       -0.24473
B          4.54398       -0.82504        0.25478
B          0.32514        1.91035       -0.90556
B          1.71178        2.51695       -0.28816
B          3.13615        1.67589       -0.24756
B          4.53567        0.81304        0.24571
B          4.43869        2.39262        0.52281
B          3.11952        3.28775        0.32318
B          1.73917        4.18462        0.32346
B          0.34716        3.47150       -0.36117
B          0.36331        4.84683        0.45899
B         -2.47763        3.51306       -0.04410
B         -1.07620        4.32983        0.19191
B         -2.52544        1.87787       -0.45235
B         -3.88520        2.60624        0.09998
B         -3.95427        0.96013       -0.37933
B         -1.10589        2.74186       -0.59458
B         -1.13904       -2.70835       -0.60649
B          3.21800       -0.08902       -0.64155
B         -1.10643        1.11718       -0.77834
B          4.43370       -2.42110        0.52692
B         -5.17965       -1.67662        0.57716
B         -5.16046       -0.01523        0.33609
B         -5.14765        1.76826        0.57235
B         -6.25748        0.80987        1.16040
B         -6.29894       -0.68498        1.17576
B          1.74628        0.88230       -0.86550
B         -1.41296       -0.55074        1.42454
B          0.29635       -1.87947       -0.91960
B          5.79467       -1.59373        0.71545
B          5.96448        0.02831        0.76202
B          5.78736        1.63908        0.76441
B         -1.46666       -0.14654       -1.20312
