45
isomer_2015.log	Energy: -112292.3527636
B          2.63376       -1.62887        0.34701
B          2.62485       -3.25685       -0.07394
B          1.21786       -4.08037       -0.33661
B         -0.23845       -3.26189        0.23512
B          1.17467       -0.74467        0.67589
B         -1.70000       -0.77589        0.76224
B         -1.62928       -4.02967       -0.47230
B          4.09251       -0.75342        0.29445
B         -1.62139       -2.36569        0.16160
B          4.03236       -2.43343       -0.20449
B         -0.20463       -4.68979       -0.62916
B         -3.06105       -3.18237       -0.46463
B         -3.08693       -1.57561        0.14224
B         -4.54680       -0.75043       -0.33307
B         -0.26528        1.77766        0.89180
B         -1.64810        2.48842        0.28403
B         -3.10486        1.68425        0.22446
B         -4.55571        0.86807       -0.29225
B         -4.39683        2.43231       -0.49819
B         -3.09683        3.31975       -0.30064
B         -1.67446        4.18205       -0.26518
B         -0.27508        3.39493        0.40302
B         -0.25720        4.86487       -0.38817
B          2.58802        3.43696        0.09489
B          1.17199        4.25715       -0.12632
B          2.61495        1.79003        0.43324
B          4.00446        2.63670       -0.07662
B          4.08323        0.93443        0.33702
B          1.18040        2.60206        0.61722
B          1.20827       -2.46487        0.48942
B         -3.17846       -0.05610        0.57737
B          1.16577        0.87438        0.71673
B         -4.37079       -2.30045       -0.61756
B          5.35190       -1.60895       -0.68864
B          5.34018        0.01576       -0.41366
B          5.33285        1.85223       -0.60134
B          6.50307        0.91935       -1.22792
B          6.51161       -0.63286       -1.26707
B         -1.70905        0.86959        0.80374
B          0.12052       -2.44765        2.36463
B         -0.24630       -1.67131        0.80481
B         -5.88340       -1.59256       -0.81312
B         -6.08791        0.12067       -0.83483
B         -5.89966        1.85131       -0.79688
B         -0.21479       -0.86927        0.06169
