45
isomer_2016.log	Energy: -112447.8699439
B          2.63741       -1.68579        0.39568
B          2.62730       -3.32494        0.02059
B          1.21975       -4.15411       -0.22043
B         -0.23635       -3.31845        0.32644
B          1.17887       -0.79126        0.69795
B         -1.69592       -0.81718        0.78190
B         -1.62718       -4.10442       -0.36070
B          4.09712       -0.81361        0.32020
B         -1.61829       -2.42330        0.22623
B          4.03579       -2.50691       -0.13144
B         -0.20304       -4.77010       -0.49736
B         -3.05809       -3.25581       -0.37845
B         -3.08299       -1.63262        0.18303
B         -4.54149       -0.81966       -0.31691
B         -0.25873        1.73758        0.84132
B         -1.64015        2.43236        0.21227
B         -3.09767        1.62828        0.17366
B         -4.54878        0.79936       -0.32156
B         -4.38808        2.35704       -0.57117
B         -3.08738        3.24838       -0.39714
B         -1.66417        4.10993       -0.38431
B         -0.26633        3.34049        0.30731
B         -0.24608        4.78761       -0.52483
B          2.59714        3.37101        0.00135
B          1.18219        4.18607       -0.24440
B          2.62201        1.73420        0.38585
B          4.01295        2.56484       -0.14602
B          4.08951        0.87478        0.31535
B          1.18809        2.55250        0.54533
B          1.21091       -2.51604        0.55990
B         -3.17344       -0.10140        0.57522
B          1.17158        0.82831        0.69330
B         -4.36676       -2.37723       -0.55756
B          5.35670       -1.69766       -0.63705
B          5.34635       -0.06586       -0.40782
B          5.34111        1.76462       -0.64701
B          6.51107        0.81335       -1.24582
B          6.51806       -0.73935       -1.24136
B         -1.70334        0.82883        0.77717
B         -0.23294       -0.88682        0.01406
B         -0.24319       -1.71250        0.85123
B         -5.87842       -1.67361       -0.77463
B         -6.08116        0.03854       -0.84467
B         -5.89117        1.76937       -0.85513
B         -0.11276        0.42117        2.50043
