45
isomer_2017.log	Energy: -113369.0846500
B          2.79206        1.56119       -0.55561
B          2.75564        3.19182       -0.03558
B          1.44719        4.09608        0.00361
B         -0.03742        3.28573       -0.42823
B          1.35196        0.76775       -1.09056
B         -1.63075        0.76365       -0.76876
B         -1.35097        4.22510        0.09184
B          4.12792        0.69957       -0.20208
B         -1.51588        2.54226       -0.55538
B          4.10629        2.30784        0.19697
B          0.07779        4.77881        0.14173
B         -2.76337        3.42695        0.16624
B         -2.94483        1.83141       -0.15174
B         -4.46118        1.08555        0.16699
B         -0.09832       -1.71753       -1.51736
B         -2.30915       -2.72554       -0.79927
B         -3.22552       -1.54288       -0.05963
B         -4.39070       -0.51635        0.61377
B         -4.51749       -2.17272        1.02677
B         -3.30228       -3.07298        0.47989
B         -1.88165       -3.85145        0.45165
B         -0.55505       -3.22311       -0.63401
B         -0.49920       -4.30700        0.57960
B          2.34322       -3.19244        0.19487
B          0.91141       -3.83701        0.28065
B          2.63718       -1.65342       -0.47940
B          3.78433       -2.43248        0.47857
B          4.04190       -0.95715       -0.20578
B          1.17468       -2.47747       -0.64489
B          1.43478        2.45659       -0.66679
B         -3.20878        0.11146       -0.42585
B          1.27573       -0.81373       -1.14751
B         -4.12189        2.72618        0.68751
B          5.29401        1.49040        0.84360
B          5.34161       -0.18311        0.53370
B          5.16690       -1.84053        0.91921
B          6.30029       -0.98246        1.57110
B          6.29306        0.51250        1.61095
B         -1.79632       -0.86067       -1.07736
B         -0.19079       -0.03063       -0.96890
B         -0.11724        1.71935       -0.97000
B         -5.23020        1.89487        1.31696
B         -5.57648        0.39131        1.45013
B         -5.52977       -1.15910        1.52991
B         -1.40272       -2.31664       -1.95151
