45
isomer_2020.log	Energy: -113495.0436650
B         -2.33293        1.71019        0.41762
B         -2.19598        3.38431       -0.12152
B         -0.80873        4.17542       -0.17364
B          0.56286        3.39694        0.61034
B         -0.99440        0.87003        0.88440
B          1.94240        0.79785        1.03291
B          1.99739        4.08301       -0.22225
B         -3.77227        1.00137        0.04443
B          1.97029        2.50466        0.48299
B         -3.54490        2.60926       -0.40795
B          0.60241        4.69586       -0.37945
B          3.31953        3.16512       -0.24798
B          3.31928        1.59055        0.32946
B          4.50321        0.56717       -0.36410
B          0.20296       -1.70038        0.99793
B          1.52285       -2.56871        0.37825
B          2.98561       -1.84799        0.13922
B          4.48942       -1.10705       -0.10653
B          4.14639       -2.75087       -0.72951
B          2.79719       -3.49133       -0.29259
B          1.36188       -4.18492       -0.30540
B         -0.02861       -3.23617        0.25452
B         -0.09461       -4.68602       -0.40568
B         -2.76965       -3.19297       -0.01117
B         -1.46449       -4.04753       -0.15682
B         -2.90042       -1.74989        0.58980
B         -4.24006       -2.26611       -0.18673
B         -4.00171       -0.63251        0.26634
B         -1.40431       -2.29353        0.71933
B         -0.96081        2.64147        0.66733
B          3.28495       -0.12924        0.58608
B         -2.19576       -0.19634        0.67739
B          4.59325        2.25212       -0.71752
B         -4.84400        1.88672       -0.98982
B         -5.17157        0.27519       -0.48427
B         -5.46486       -1.41268       -0.65265
B         -6.38597       -0.37149       -1.35667
B         -6.04198        1.06880       -1.58294
B          1.68654       -0.89364        0.69965
B         -1.02982       -0.88392        1.61479
B          0.51331        1.82546        1.08207
B          5.61348        1.26303       -1.24502
B          5.61978       -0.32497       -1.28229
B          5.23073       -1.84806       -1.29879
B          0.38212        0.05177        1.24645
