45
isomer_2021.log	Energy: -113192.4324909
B         -2.37623        1.59898        0.51662
B         -2.16744        3.38275       -0.02882
B         -0.80639        4.08347       -0.00980
B          0.59562        3.26959        0.52527
B         -0.97573        0.81013        0.98878
B          1.93760        0.74033        0.93661
B          2.01065        4.03053       -0.01658
B         -3.85516        1.13958        0.18313
B          2.01315        2.37199        0.67751
B         -3.48399        2.67547       -0.25167
B          0.64802        4.68667       -0.16149
B          3.36497        3.14544       -0.06150
B          3.43742        1.56635        0.42959
B          4.80466        0.62020       -0.02208
B          0.54007       -1.67920        1.36718
B          1.57948       -2.43915        0.26858
B          3.03479       -1.73637        0.00498
B          4.42858       -0.92831       -0.53424
B          4.14696       -2.52752       -1.10125
B          2.72899       -3.22914       -0.64317
B          1.27507       -3.87210       -0.55585
B         -0.05852       -3.12824        0.54804
B         -0.13140       -4.22384       -0.69273
B         -2.91033       -2.97592       -0.32542
B         -1.53122       -3.70580       -0.43355
B         -3.16629       -1.60890        0.86316
B         -4.11952       -2.03076       -0.54063
B         -4.17770       -0.53565        0.10797
B         -1.70349       -2.49852        0.65657
B         -0.90341        2.39955        0.53820
B          3.41840       -0.15071        0.57595
B         -1.07261       -0.70599        1.40459
B          4.59377        2.29555       -0.56237
B         -4.81891        2.12840       -0.95383
B         -5.17262        0.52010       -0.63489
B         -5.24996       -1.08501       -1.12001
B         -6.05046        0.00242       -1.91166
B         -5.88184        1.46327       -1.81064
B          1.88732       -0.87560        0.98341
B         -2.19979       -1.67363        2.08968
B          0.52212        1.57708        0.93874
B          5.53691        1.29976       -1.28660
B          5.69545       -0.20060       -1.41963
B          5.34619       -1.73670       -1.56327
B         -0.73318       -2.25995        2.03711
