45
isomer_2022.log	Energy: -113477.4508152
B          2.19779       -1.41696        0.54622
B          1.83010       -2.32159       -0.94640
B          0.37572       -2.74888       -1.32227
B         -0.71549       -3.40501        0.45349
B          0.60064       -1.05972       -0.34370
B         -1.72044       -0.68947        0.45266
B         -2.25401       -3.52805       -0.49834
B          3.77268       -0.80160        0.39848
B         -2.08128       -2.38567        0.78169
B          3.33825       -2.06938       -0.61648
B         -1.02679       -3.41367       -1.35852
B         -3.65123       -2.90496        0.07006
B         -3.41898       -1.36862        0.49552
B         -4.72116       -0.21516        0.53217
B          0.02903        1.41027        0.74923
B         -1.22668        2.45638        0.13441
B         -2.79362        2.00025        0.22175
B         -4.28836        1.28081       -0.12124
B         -4.03198        2.92348       -0.55041
B         -2.44735        3.46517       -0.41987
B         -0.94094        3.99404       -0.57126
B          0.35102        2.99106        0.21156
B          0.54795        4.21451       -0.78416
B          3.09111        2.54566       -0.11069
B          1.84447        3.40253       -0.47535
B          3.00551        0.79717        0.49876
B          4.39521        1.90031        0.27445
B          4.51628        0.52612        1.14299
B          1.64255        1.85675        0.32423
B          0.78289       -2.72157        0.44757
B         -3.12678        0.33860        0.65472
B          1.30472        0.21134        0.56681
B         -4.88551       -1.92564       -0.05669
B          4.84717       -1.67996       -0.82017
B          5.43817       -0.46841        0.21031
B          5.85623        1.17332        0.31541
B          6.67012        0.31797       -0.61631
B          6.15641       -0.98521       -1.16776
B         -1.48892        0.89027        0.75718
B          0.89290       -1.23546        1.49539
B         -0.57084       -1.74550        1.25880
B         -5.87138       -0.77343       -0.42570
B         -5.86549        0.74871       -0.47537
B         -5.38870        2.26867       -0.68123
B         -0.97100       -1.84949       -0.63194
