45
isomer_2025.log	Energy: -113233.2189768
B         -2.65551       -1.65377       -0.48466
B         -2.51247       -3.29348        0.01526
B         -1.10458       -3.98771        0.27243
B          0.33141       -3.34217       -0.37372
B         -1.26119       -0.81374       -0.86865
B          1.77706       -0.77261       -1.01089
B          1.73981       -3.94729        0.49457
B         -4.07741       -0.87498       -0.33197
B          1.93264       -2.41022       -0.20100
B         -3.93704       -2.46336        0.20745
B          0.35105       -4.54493        0.64585
B          3.17774       -3.14513        0.54023
B          3.22154       -1.55934       -0.15036
B          4.51727       -0.64031        0.32874
B          0.21159        1.77309       -1.00720
B          1.55967        2.51850       -0.31152
B          3.01833        1.77525       -0.20541
B          4.41751        1.00420        0.28664
B          4.29073        2.63177        0.64790
B          2.85683        3.34535        0.35679
B          1.47714        4.14851        0.33869
B          0.11453        3.38551       -0.40438
B          0.05192        4.72630        0.44769
B         -2.72703        3.29030       -0.09696
B         -1.34415        4.10856        0.12308
B         -2.74842        1.63561       -0.51898
B         -4.11233        2.40986        0.11460
B         -4.14717        0.80385       -0.35892
B         -1.37516        2.56346       -0.66297
B         -1.22062       -2.52245       -0.61733
B          3.21192        0.08605       -0.61066
B         -1.34196        0.84969       -0.86159
B          4.52704       -2.30517        0.76861
B         -5.19135       -1.75594        0.79501
B         -5.28491       -0.09142        0.49450
B         -5.32558        1.61392        0.69032
B         -6.37407        0.64051        1.40082
B         -6.32076       -0.84333        1.45807
B          1.67007        0.89800       -0.91516
B          0.04534        0.08573       -0.73647
B          0.18794       -1.55977       -1.13527
B          5.74324       -1.34187        1.01618
B          5.82005        0.27303        0.98950
B          5.57120        1.83259        0.98419
B          1.23816       -2.53066       -1.55306
