45
isomer_2026.log	Energy: -113431.5484499
B          2.45168        1.75015       -0.58847
B          2.33955        3.42796       -0.06437
B          0.96043        4.15556        0.20815
B         -0.51966        3.41009       -0.42868
B          1.04229        0.91836       -0.84825
B         -1.87949        0.90014       -0.83124
B         -1.89431        4.06273        0.43701
B          3.86977        1.02731       -0.51159
B         -1.93456        2.53898       -0.42014
B          3.76257        2.62555        0.01111
B         -0.48606        4.61454        0.61278
B         -3.25235        3.18702        0.40560
B         -3.31495        1.64883       -0.23284
B         -4.68600        0.64112        0.04992
B         -0.33813       -1.57460       -1.45106
B         -1.54493       -2.42931       -0.61989
B         -2.99784       -1.80328       -0.26658
B         -4.36389       -0.98296        0.30034
B         -4.07034       -2.59362        0.82846
B         -2.63773       -3.28774        0.32360
B         -1.12252       -3.91095        0.21644
B         -0.08479       -3.19174       -0.87749
B          0.33640       -4.21995        0.44811
B          2.91071       -3.32497        0.60050
B          1.81770       -4.28599        0.81644
B          2.52949       -1.76933       -0.48892
B          3.91409       -2.12688        0.46834
B          3.71214       -0.61971       -0.12564
B          1.60498       -3.32564       -0.41280
B          1.01447        2.60064       -0.50099
B         -3.33223       -0.07786       -0.68767
B          1.26614       -0.61455       -1.08841
B         -4.53121        2.26560        0.76886
B          5.15205        2.03288        0.36479
B          4.93513        0.37898        0.54024
B          4.91661       -1.15130        1.16952
B          5.99547       -0.15393        1.65232
B          6.23732        1.21756        1.11315
B         -1.76893       -0.79064       -1.10235
B          1.26694       -2.21236       -1.45486
B         -0.47745        1.85435       -1.04687
B         -5.52832        1.24370        1.26841
B         -5.61780       -0.31023        1.27454
B         -5.29788       -1.83844        1.27618
B         -0.35459        0.09396       -1.10572
