45
isomer_2027.log	Energy: -113578.7902906
B         -2.70269       -1.70156       -1.30099
B         -2.89720       -3.20296       -0.47704
B         -1.49578       -3.76561        0.11268
B          0.14467       -3.34987       -0.71154
B         -1.27804       -0.86724       -0.60517
B          1.65644       -0.81994       -0.96682
B          1.37364       -3.99640        0.32950
B         -3.08435       -0.20624       -0.61687
B          1.59944       -2.48068       -0.42543
B         -3.82764       -1.83025       -0.08981
B         -0.07705       -4.37394        0.50574
B          2.84615       -3.20410        0.38488
B          2.97197       -1.66311       -0.15669
B          4.42216       -0.79793        0.12791
B          0.15559        1.75194       -0.98766
B          1.56490        2.52533       -0.32808
B          3.03317        1.75335       -0.31354
B          4.47402        0.89336       -0.04904
B          4.26235        2.49439        0.61430
B          2.89841        3.34250        0.21722
B          1.50069        4.14164        0.20276
B          0.09018        3.37173       -0.66249
B          0.06292        4.63016        0.32060
B         -2.76996        3.32851       -0.10068
B         -1.38974        4.08628        0.01796
B         -2.79322        1.57239       -0.58866
B         -4.07732        2.47120        0.13800
B         -4.29947        0.97699       -0.58117
B         -1.38195        2.46089       -0.45917
B         -1.29773       -2.53541       -1.16397
B          3.16439        0.01993       -0.69183
B         -1.33118        0.78662       -0.68140
B          4.24186       -2.41840        0.75457
B         -3.24699       -1.42265        1.44836
B         -4.38731       -0.30945        0.65112
B         -4.99266        1.41494        0.89602
B         -5.13099        0.45975        2.03888
B         -4.26235       -0.65692        2.30476
B          1.60105        0.87538       -0.75785
B         -2.05042       -2.05272        0.51654
B          0.25753       -1.73377       -1.30095
B          5.42044       -1.53367        1.14135
B          5.57918        0.01228        1.11400
B          5.32018        1.55448        1.14761
B          0.13273       -0.00122       -0.96791
