45
isomer_2028.log	Energy: -112410.2224605
B         -2.61587        1.72638        0.43488
B         -2.60329        3.36759        0.06898
B         -1.19441        4.19646       -0.16520
B          0.25987        3.35607        0.37927
B         -1.15884        0.82847        0.73442
B          1.71585        0.85060        0.82301
B          1.65268        4.14425       -0.30129
B         -4.07646        0.85632        0.35224
B          1.64093        2.45989        0.27621
B         -4.01248        2.55206       -0.08983
B          0.22952        4.81234       -0.43645
B          3.08264        3.29410       -0.32155
B          3.10479        1.66776        0.23088
B          4.56314        0.85592       -0.27132
B          0.27563       -1.70278        0.86589
B          1.65724       -2.39564        0.23512
B          3.11574       -1.59305        0.20329
B          4.56858       -0.76305       -0.28502
B          4.40648       -2.31912       -0.54358
B          3.10448       -3.20991       -0.37658
B          1.68027       -4.06987       -0.37079
B          0.28223       -3.30269        0.32293
B          0.26161       -4.74512       -0.51732
B         -2.58080       -3.32818        0.01233
B         -1.16640       -4.14349       -0.23577
B         -2.60438       -1.69352        0.40594
B         -3.99545       -2.51956       -0.13274
B         -4.07079       -0.83202        0.33795
B         -1.17166       -2.51436        0.56308
B         -1.18868        2.55404        0.60597
B          3.19286        0.13428        0.61464
B         -1.15340       -0.79105        0.72072
B          4.39058        2.41502       -0.50353
B         -5.33352        1.74717       -0.60203
B         -5.32541        0.11410       -0.38191
B         -5.32190       -1.71502       -0.63132
B         -6.48981       -0.75906       -1.22663
B         -6.49503        0.79360       -1.21350
B          1.72138       -0.79536        0.80908
B         -0.18042        0.07930       -0.68144
B          0.26404        1.74720        0.89508
B          5.90177        1.71087       -0.72216
B          6.10265       -0.00109       -0.80146
B          5.91068       -1.73161       -0.82190
B         -0.34668       -1.33824        1.74141
