45
isomer_2029.log	Energy: -113368.4682676
B          2.41320        1.90442       -0.50775
B          2.31230        3.49490       -0.02089
B          0.85366        4.20647        0.13158
B         -0.53409        3.41214       -0.46509
B          1.03326        0.96589       -0.93398
B         -1.79700        0.79825       -0.85368
B         -1.95101        4.07515        0.31884
B          3.89784        1.12125       -0.28937
B         -1.90219        2.45548       -0.37271
B          3.70271        2.74120        0.24392
B         -0.56768        4.71343        0.45251
B         -3.27922        3.17414        0.27419
B         -3.30515        1.62164       -0.26296
B         -4.66383        0.69830        0.13685
B         -0.32062       -1.61739       -0.92443
B         -1.65708       -2.45803       -0.30706
B         -3.14231       -1.74875       -0.20044
B         -4.57237       -0.94721        0.18528
B         -4.43572       -2.59180        0.57189
B         -3.00289       -3.28139        0.33409
B         -1.56105       -4.05694        0.41930
B         -0.20801       -3.29567       -0.30719
B         -0.15518       -4.61450        0.56727
B          2.66830       -3.36601        0.18174
B          1.25509       -3.98234        0.31566
B          2.56549       -1.45755       -0.59665
B          3.94809       -2.31904        0.15026
B          3.98188       -0.64939       -0.28327
B          1.23071       -2.42559       -0.56314
B          0.98278        2.68792       -0.66262
B         -3.27836       -0.06319       -0.55418
B          1.05618       -0.70954       -0.87641
B         -4.68053        2.33059        0.54793
B          4.98622        1.96448        0.78456
B          5.09641        0.28458        0.55028
B          5.08842       -1.42683        0.79397
B          6.08878       -0.44046        1.55736
B          6.08022        1.06646        1.51936
B         -1.72453       -0.82681       -0.83234
B          2.93680       -2.86600       -1.24865
B         -0.48905        1.72894       -0.96954
B         -5.81965        1.38649        0.94306
B         -5.94309       -0.19973        0.92684
B         -5.69137       -1.73289        0.95151
B          2.50365        0.24492       -0.82592
