45
isomer_2031.log	Energy: -112471.3592768
B         -2.54757       -1.75227       -0.41420
B         -2.46196       -3.42615       -0.07068
B         -1.01169       -4.27977        0.15162
B          0.41948       -3.41533       -0.38170
B         -1.01176       -0.76259       -0.78293
B          1.82873       -0.80588       -0.83935
B          1.81270       -4.15411        0.29248
B         -4.04301       -0.86565       -0.36837
B          1.80181       -2.47794       -0.27247
B         -3.90365       -2.55284        0.08156
B          0.39860       -4.81318        0.41256
B          3.20822       -3.26547        0.32379
B          3.21731       -1.62959       -0.23477
B          4.64272       -0.74829        0.25092
B          0.37421        1.74566       -0.92531
B          1.69473        2.51066       -0.26660
B          3.14387        1.72491       -0.22760
B          4.59370        0.90724        0.25588
B          4.43137        2.48473        0.53545
B          3.06032        3.34691        0.34762
B          1.64400        4.16580        0.33360
B          0.26481        3.40764       -0.36034
B          0.23117        4.78032        0.44861
B         -2.66357        3.41196       -0.05389
B         -1.20908        4.20871        0.17846
B         -2.81955        1.75747       -0.42267
B         -4.14144        2.54237        0.10141
B         -4.12752        0.86498       -0.36351
B         -1.15464        2.63903       -0.59746
B         -1.03340       -2.67137       -0.61146
B          3.26956       -0.02624       -0.63051
B         -0.98419        0.71211       -0.79810
B          4.55477       -2.35148        0.51883
B         -5.24233       -1.78145        0.57171
B         -5.30971       -0.11068        0.34342
B         -5.38575        1.66445        0.56906
B         -6.46813        0.65994        1.14308
B         -6.42783       -0.84860        1.14971
B          1.79281        0.88455       -0.84344
B         -1.68855        1.13796       -0.28830
B          0.43489       -1.74490       -0.89117
B          5.92726       -1.49980        0.69988
B          6.05760        0.14538        0.75552
B          5.83995        1.78019        0.77200
B         -1.00927       -1.49940        0.40767
