45
isomer_2032.log	Energy: -113408.2788287
B         -2.65513        1.58709        0.65675
B         -2.67894        3.20698       -0.00639
B         -1.35312        4.09932       -0.10090
B          0.11484        3.41208        0.56257
B         -1.20527        0.79357        1.00153
B          1.55520        0.83249        0.40675
B          1.44076        4.17393       -0.35657
B         -3.99317        0.73266        0.25221
B          1.54689        2.58571        0.23878
B         -3.95400        2.31089       -0.15982
B         -0.00905        4.70425       -0.41531
B          2.84120        3.37561       -0.39425
B          2.99699        1.77969        0.13910
B          4.45462        0.99192       -0.13663
B          0.33749       -1.70320        0.91155
B          1.84226       -2.48225        0.54848
B          3.20841       -1.58105        0.46911
B          4.55002       -0.70845       -0.05357
B          4.53346       -2.38786       -0.46698
B          3.19645       -3.20944       -0.04656
B          1.84227       -4.08426       -0.15837
B          0.37671       -3.32962        0.35364
B          0.44603       -4.71934       -0.39340
B         -2.41306       -3.34521       -0.21776
B         -0.97583       -4.12364       -0.28210
B         -2.50289       -1.71366        0.27162
B         -3.81242       -2.55814       -0.35585
B         -3.91764       -0.96755        0.05045
B         -1.12663       -2.56367        0.49732
B         -1.31379        2.52437        0.72362
B          3.19989        0.10327        0.60809
B         -1.16467       -0.80253        0.67127
B          4.20617        2.55185       -0.84803
B         -5.32688        1.47825       -0.55200
B         -5.31500       -0.16759       -0.17825
B         -5.19528       -1.78570       -0.75220
B         -6.29369       -0.88335       -1.31656
B         -6.38816        0.60656       -1.19678
B          1.70755       -0.75816        0.94819
B          0.21210       -0.12375       -0.04938
B          0.21088        1.78112        0.99051
B          5.31285        1.62722       -1.32772
B          5.63000        0.10874       -1.15687
B          5.56535       -1.44219       -1.04930
B          0.26621        0.07306        1.67000
