45
isomer_2034.log	Energy: -113455.9982720
B          2.23252       -1.18763        0.46880
B          2.21798       -2.68781       -0.76645
B          0.88814       -3.42268       -1.16039
B         -0.50021       -3.34598       -0.04340
B          0.87584       -1.15902        1.40106
B         -1.83706       -0.88720        1.25535
B         -1.93894       -3.60202       -1.01995
B          3.84457       -0.62706        0.36255
B         -1.93006       -2.46697        0.28576
B          3.56460       -2.05786       -0.40058
B         -0.54145       -3.89443       -1.53269
B         -3.31245       -2.94417       -0.49913
B         -3.24061       -1.50813        0.31122
B         -4.53663       -0.47991       -0.06869
B         -0.06255        1.48279        0.62000
B         -1.46213        2.42347        0.16919
B         -2.97793        1.88735        0.44676
B         -4.53514        1.17538        0.25887
B         -4.22029        2.76165       -0.41112
B         -2.73680        3.36920       -0.30450
B         -1.23121        3.95157       -0.58931
B          0.12694        3.04166        0.04917
B          0.21013        4.23810       -0.97709
B          2.84929        2.63070       -0.63866
B          1.56775        3.47092       -0.77399
B          2.87148        0.94181        0.34747
B          4.18089        2.03587       -0.30455
B          4.43468        0.92874        0.81697
B          1.47384        1.87830       -0.07959
B          0.97196       -2.40281        0.17572
B         -3.21230        0.16676        0.76702
B          1.32911        0.35997        0.60546
B         -4.69793       -2.08109       -0.56785
B          5.06166       -1.63834       -0.45693
B          5.53013       -0.19074        0.29979
B          5.72479        1.43128       -0.13896
B          6.75766        0.45421       -0.65853
B          6.39339       -0.96297       -0.85613
B         -1.64040        0.81951        0.75625
B         -0.25071        0.15228        1.56287
B         -0.48803       -2.24164        1.19191
B         -5.82590       -1.10014       -0.77842
B         -5.84374        0.47031       -0.71980
B         -5.47028        1.96943       -0.76388
B         -0.61460       -1.15266        2.35839
