45
isomer_2036.log	Energy: -113458.7476991
B          2.54885        1.66153       -0.63410
B          2.53722        3.38209       -0.05320
B          1.18866        4.14653        0.02123
B         -0.27442        3.43697       -0.65437
B          1.20212        0.93722       -1.06879
B         -1.74948        0.92420       -0.98507
B         -1.64819        4.15896        0.19950
B          3.90595        0.91279       -0.15326
B         -1.70962        2.56991       -0.47520
B          3.79793        2.51388        0.20235
B         -0.22439        4.70708        0.31621
B         -3.01597        3.32239        0.26901
B         -3.08769        1.74651       -0.22321
B         -4.36015        0.78765        0.39822
B         -0.28761       -1.73451       -1.45950
B         -1.40909       -2.41346       -0.04926
B         -3.00047       -1.71903       -0.10981
B         -4.46225       -0.86791        0.10836
B         -4.20830       -2.50293        0.76283
B         -2.87350       -3.28690        0.30113
B         -1.55549       -4.14122        0.00710
B         -0.23108       -3.33018       -0.93972
B         -0.18072       -4.71707       -0.07748
B          2.52427       -3.31353        0.04967
B          1.22620       -4.12522       -0.18696
B          2.56858       -1.60742       -0.43779
B          3.80525       -2.45279        0.31166
B          3.89475       -0.85348       -0.10433
B          1.08737       -2.40729       -0.25665
B          1.20077        2.57724       -0.74497
B         -3.15041       -0.00044       -0.50066
B          1.21679       -0.74005       -0.83291
B         -4.33486        2.46457        0.76512
B          5.09259        1.69031        0.77191
B          5.15387        0.03633        0.44749
B          5.11970       -1.60890        0.86779
B          6.13333       -0.69924        1.55406
B          6.12686        0.79743        1.52045
B         -1.57927       -0.75297       -0.51693
B         -0.09977       -1.25393        0.23283
B         -0.32647        1.81919       -1.21094
B         -5.42850        1.53608        1.27889
B         -5.57338       -0.04099        1.27159
B         -5.31288       -1.56326        1.26390
B         -0.24711        0.00388       -1.24618
