45
isomer_2037.log	Energy: -113510.9144149
B          2.56194        1.73944       -0.90651
B          2.34090        3.03972        0.29912
B          0.92692        3.86211        0.38271
B         -0.40483        3.28741       -0.50255
B          1.03037        0.79320       -0.96594
B         -1.80956        0.75519       -0.80102
B         -1.84756        4.00840        0.20108
B          3.98181        0.91917       -0.62819
B         -1.87399        2.42712       -0.55516
B          3.84501        2.63858        0.24918
B         -0.43935        4.50664        0.54578
B         -3.22829        3.22470        0.05814
B         -3.33071        1.65791       -0.44736
B         -4.74306        0.77988       -0.15942
B         -0.36543       -1.67564       -0.86266
B         -1.73720       -2.45701       -0.21660
B         -3.20343       -1.75648       -0.19211
B         -4.56888       -0.83418        0.23365
B         -4.46787       -2.47501        0.72310
B         -3.05700       -3.26674        0.41197
B         -1.63806       -4.09127        0.40030
B         -0.32563       -3.34668       -0.40635
B         -0.22734       -4.69332        0.41891
B          2.52388       -3.32751       -0.18956
B          1.18356       -4.10841        0.02856
B          2.53371       -1.62298       -0.47874
B          3.89817       -2.47962       -0.05423
B          3.96131       -0.82932       -0.55257
B          1.14207       -2.54488       -0.70325
B          1.05871        2.45549       -0.68081
B         -3.32883       -0.06333       -0.64389
B          1.00939       -0.80124       -0.72179
B         -4.60384        2.40783        0.43640
B          4.84814        1.63021        0.84281
B          5.22015        0.04568        0.17648
B          5.14850       -1.66855        0.48403
B          6.13901       -0.78729        1.24562
B          5.90854        0.65064        1.51253
B         -1.76527       -0.83832       -0.81916
B          2.95509        1.34519        0.82918
B         -0.41683        1.59807       -0.96350
B         -5.66837        1.47221        0.96653
B         -5.89643       -0.05860        0.99961
B         -5.67866       -1.59338        1.07819
B          2.40925        0.07500       -0.07248
