45
isomer_2038.log	Energy: -113354.7066385
B         -2.41837       -1.77761       -0.27199
B         -2.81726       -3.36653       -0.08329
B         -1.37145       -3.49653        0.25233
B          0.18072       -3.54285       -0.77007
B         -1.29126       -0.78494       -0.93467
B          1.61620       -0.83795       -0.66003
B          1.45349       -3.96070        0.57076
B         -3.67985       -0.72013        0.10742
B          1.51088       -2.50601       -0.26904
B         -3.91961       -2.36223        0.24421
B          0.02973       -3.85097        0.84232
B          2.86231       -3.26239        0.46750
B          3.00062       -1.71908       -0.07869
B          4.45289       -0.87715        0.17676
B          0.30191        1.76688       -1.18497
B          1.72958        2.50724       -0.55850
B          3.07316        1.68349       -0.16530
B          4.43152        0.78553        0.33390
B          4.32750        2.48051        0.75459
B          3.02189        3.28354        0.23209
B          1.64279        4.13826        0.14432
B          0.28918        3.36761       -0.62360
B          0.24687        4.75831        0.16658
B         -2.53393        3.43277       -0.29223
B         -1.15383        4.20289       -0.16351
B         -2.49099        1.74795       -0.46203
B         -3.80785        2.61181        0.14340
B         -3.83357        0.92110       -0.03570
B         -1.17817        2.56409       -0.91412
B         -1.38351       -2.59637       -1.27537
B          3.21389       -0.01724       -0.52968
B         -1.21711        0.83383       -1.00856
B          4.21845       -2.43424        0.89439
B         -5.03425       -1.46193        1.01579
B         -4.61587        0.16148        1.17827
B         -5.01638        1.81479        0.83786
B         -6.06086        0.90984        1.49104
B         -6.04178       -0.57966        1.67295
B          1.70229        0.82132       -0.84835
B         -0.18118       -2.97581       -2.19427
B          0.32533       -1.70818       -1.44911
B          5.25694       -1.49932        1.44592
B          5.54723        0.02549        1.39324
B          5.40402        1.56187        1.33717
B          0.20769       -0.04280       -0.92972
