45
isomer_2039.log	Energy: -111431.3806476
B          2.62339       -1.68745        0.40256
B          2.60262       -3.32502        0.02105
B          1.18958       -4.14490       -0.21959
B         -0.26014       -3.30282        0.33435
B          1.17096       -0.78552        0.71213
B         -1.70372       -0.79479        0.80343
B         -1.65736       -4.07784       -0.35229
B          4.08804       -0.82362        0.32674
B         -1.63701       -2.39914        0.24124
B          4.01553       -2.51473       -0.13141
B         -0.23753       -4.75137       -0.49525
B         -3.08327       -3.22073       -0.36298
B         -3.09712       -1.59965        0.20495
B         -4.55206       -0.77612       -0.28800
B         -0.25129        1.75117        0.86919
B         -1.63019        2.45658        0.24646
B         -3.09253        1.66129        0.20846
B         -4.54979        0.84292       -0.28626
B         -4.38051        2.40059       -0.53014
B         -3.07412        3.28354       -0.35598
B         -1.64581        4.13661       -0.34344
B         -0.25078        3.35620        0.34152
B         -0.22410        4.80646       -0.48496
B          2.61204        3.37102        0.02826
B          1.20130        4.19538       -0.21061
B          2.62820        1.73258        0.40624
B          4.02266        2.55709       -0.12595
B          4.09041        0.86479        0.32855
B          1.19956        2.55870        0.57266
B          1.19244       -2.50991        0.56721
B         -3.17750       -0.06949        0.60340
B          1.17323        0.83407        0.71388
B         -4.38717       -2.33374       -0.53524
B          5.33991       -1.71130       -0.63726
B          5.33980       -0.08038       -0.40157
B          5.34478        1.75103       -0.63353
B          6.50754        0.79524       -1.23912
B          6.50536       -0.75748       -1.24079
B         -1.70140        0.85123        0.80520
B          0.89412        0.27653        1.40677
B         -0.25614       -1.69895        0.86547
B         -5.89520       -1.62035       -0.74561
B         -6.08798        0.09323       -0.80838
B         -5.88778        1.82294       -0.81251
B         -1.02100       -1.41388        0.23114
