45
isomer_0204.log	Energy: -113366.5510329
B          2.61649       -1.71678        0.69488
B          2.58310       -3.25729       -0.17420
B          1.19018       -4.01530       -0.49346
B         -0.28563       -3.33592        0.15987
B          0.84444       -0.61887        0.60578
B         -1.67627       -0.83412        0.87919
B         -1.64101       -4.02724       -0.53058
B          3.92667       -0.79700        0.19280
B         -1.73622       -2.50473        0.42530
B          3.93410       -2.39840       -0.23562
B         -0.24605       -4.56083       -0.81685
B         -3.06250       -3.25343       -0.29999
B         -3.10435       -1.70013        0.21682
B         -4.51670       -0.82989       -0.16519
B         -0.42915        1.73888        0.72965
B         -1.87397        2.50642        0.38988
B         -3.29647        1.69547        0.40589
B         -4.72154        0.81463        0.17649
B         -4.58627        2.40239       -0.50456
B         -3.22286        3.24899       -0.22019
B         -1.84990        4.11981       -0.34121
B         -0.43176        3.40888        0.32514
B         -0.44630        4.73811       -0.54095
B          2.43229        3.40819       -0.12897
B          0.98758        4.21027       -0.28528
B          2.43041        1.78846        0.29123
B          3.81582        2.58847       -0.29001
B          3.86297        0.94127        0.14473
B          1.02077        2.60447        0.36046
B          1.15487       -2.56733        0.33597
B         -3.24774       -0.01417        0.62077
B          0.97029        0.92367        0.53056
B         -4.49275       -2.49336       -0.54044
B          5.21922       -1.56124       -0.68546
B          5.19585        0.11201       -0.35967
B          5.23855        1.83078       -0.44162
B          6.45398        0.92574       -0.92984
B          6.40992       -0.57993       -1.13186
B         -1.76393        0.78106        0.77744
B          2.42837        0.03318        0.74660
B         -0.23474       -1.79807        1.07820
B         -5.72046       -1.63418       -0.85325
B         -5.90127       -0.08594       -0.88058
B         -5.65729        1.43109       -0.97990
B          1.42926       -1.66810        1.74202
