45
isomer_2043.log	Energy: -113265.1761697
B          2.54524       -1.35155        0.49695
B          3.21902       -3.01308       -0.13991
B          2.14180       -4.13369        0.08962
B          0.76735       -3.02067        0.53188
B          1.56923       -0.02633        0.85735
B         -1.40400       -0.92263        0.99314
B         -0.53928       -4.06376       -0.17853
B          3.62115       -0.21160       -0.00169
B         -0.70844       -2.29040        0.10491
B          4.04313       -1.75130       -0.37201
B          0.76151       -4.67584        0.01504
B         -1.89948       -3.38778       -0.61418
B         -2.39022       -1.98298        0.00601
B         -3.91234       -1.42552       -0.65860
B         -0.79635        1.76839        1.16641
B         -2.38607        2.27002        0.91818
B         -3.54900        1.14459        0.49815
B         -4.60980       -0.03214       -0.05259
B         -4.83089        1.67002       -0.48924
B         -3.83586        2.74679        0.14283
B         -2.67861        3.85614        0.08239
B         -1.13279        3.36996        0.58445
B         -1.42855        4.68995       -0.22239
B          1.53790        3.67804       -0.37942
B          0.07621        4.27313       -0.20586
B          1.93497        2.04522        0.47264
B          2.88605        3.05783       -0.59512
B          3.30535        1.50881       -0.00710
B          0.47982        2.78205        0.60766
B          2.33396       -2.92910        1.24656
B         -3.07311       -0.50895        0.52541
B          0.77087        1.27756        1.23327
B         -3.27737       -2.92862       -1.20289
B          5.09325       -0.67175       -0.84128
B          4.71728        0.94970       -0.50972
B          4.34506        2.52985       -1.00258
B          5.58864        1.86047       -1.60407
B          5.92215        0.43328       -1.53243
B         -1.91194        0.64881        1.01579
B          1.42217       -1.71773        1.80218
B         -0.08105       -1.43733        1.65082
B         -4.60868       -2.36736       -1.73169
B         -5.27601       -0.97479       -1.54374
B         -5.46621        0.53166       -1.29800
B          0.71392       -1.26736        0.14139
