45
isomer_2044.log	Energy: -113456.5729822
B          2.62750        1.74357       -0.69969
B          2.60221        3.44560       -0.36573
B          1.23210        4.17410       -0.10076
B         -0.27585        3.42369       -0.63624
B          1.23268        0.88423       -0.89897
B         -1.68053        0.88406       -0.63870
B         -1.61583        4.16933        0.24139
B          3.96325        0.88686       -0.44155
B         -1.67447        2.57191       -0.36328
B          3.92611        2.54729       -0.09094
B         -0.17252        4.69853        0.31689
B         -3.02981        3.34183        0.29863
B         -3.08250        1.73361       -0.10957
B         -4.52761        0.85715        0.18523
B         -0.24632       -1.66407       -0.92726
B         -1.68296       -2.48065       -0.40665
B         -3.14412       -1.66135       -0.24394
B         -4.57491       -0.83459        0.00690
B         -4.40317       -2.46602        0.61491
B         -3.04465       -3.29338        0.13691
B         -1.69007       -4.11941        0.10413
B         -0.23090       -3.33064       -0.64715
B         -0.25997       -4.68300        0.19764
B          2.55327       -3.36405       -0.07886
B          1.12285       -4.10934       -0.06505
B          2.82614       -1.87144       -1.17525
B          3.79083       -2.55175        0.27641
B          3.87714       -0.87908       -0.38851
B          1.32674       -2.49146       -0.83412
B          1.24378        2.62210       -0.80029
B         -3.21155        0.01934       -0.55051
B          1.42735       -0.74076       -0.71054
B         -4.34573        2.50601        0.75467
B          4.97314        1.74375        0.72556
B          4.86917        0.04142        0.65483
B          4.52465       -1.55408        1.16151
B          5.36742       -0.56072        2.06875
B          5.67410        0.85610        1.81272
B         -1.66085       -0.79356       -0.64116
B          2.42178       -1.53249        0.48048
B         -0.27246        1.75865       -1.02625
B         -5.47893        1.56223        1.22938
B         -5.66263        0.02133        1.17698
B         -5.45102       -1.53594        1.15835
B         -0.16286        0.02509       -0.76131
