45
isomer_2045.log	Energy: -113365.7863316
B          2.47297        1.76269       -0.60344
B          2.40274        3.45389       -0.03737
B          1.03556        4.18483        0.08708
B         -0.39728        3.46057       -0.54295
B          1.04579        1.04812       -1.10941
B         -1.75452        0.89240       -1.03683
B         -1.76163        4.11487        0.28095
B          3.87988        1.09486       -0.25623
B         -1.80438        2.52380       -0.50048
B          3.70823        2.67396        0.14324
B         -0.37430        4.73398        0.40251
B         -3.12765        3.25729        0.26064
B         -3.19079        1.71923       -0.27648
B         -4.41491        0.73032        0.34615
B         -0.23393       -1.41428       -1.04724
B         -1.57765       -2.39054       -0.66210
B         -3.04349       -1.71806       -0.34533
B         -4.49189       -0.90063        0.07542
B         -4.08530       -2.42068        0.81691
B         -2.66488       -3.12714        0.39439
B         -1.22542       -3.86068        0.31454
B         -0.05743       -3.19413       -0.95670
B          0.01969       -4.69335        0.08088
B          2.30449       -2.99301        0.23430
B          1.39408       -4.16833       -0.34331
B          2.51157       -1.46215       -0.70628
B          3.65600       -2.12926        0.42006
B          3.82404       -0.61564       -0.17277
B          1.38603       -2.48653       -1.31682
B          1.09049        2.65999       -0.82527
B         -3.23009        0.01897       -0.62416
B          1.16948       -0.53541       -0.99515
B         -4.47016        2.41259        0.67606
B          5.04359        1.87769        0.72653
B          5.13764        0.23160        0.36120
B          4.96598       -1.38079        0.89919
B          5.96160       -0.44396        1.62725
B          6.02707        1.03344        1.51760
B         -1.71574       -0.71610       -0.97240
B          0.46221       -3.17625        0.77551
B         -0.39628        1.84343       -1.17025
B         -5.55920        1.47185        1.18951
B         -5.62511       -0.08435        1.26584
B         -5.21762       -1.56368        1.35811
B          0.92054       -1.72544        0.24708
