45
isomer_2046.log	Energy: -113408.1963840
B         -2.69735       -1.34559       -0.59278
B         -2.73914       -3.11891       -0.03994
B         -1.36511       -3.38963        0.98466
B          0.01157       -3.34172       -0.64529
B         -1.27955       -0.55564       -0.87877
B          1.65201       -0.84109       -0.76518
B          1.40152       -4.01316        0.36136
B         -4.07477       -0.63782       -0.40518
B          1.56061       -2.56485       -0.49772
B         -4.02416       -2.19213        0.08356
B         -0.08229       -4.13004        0.85943
B          2.80610       -3.39560        0.24452
B          3.06438       -1.80436       -0.39003
B          4.52264       -1.07618       -0.08960
B          0.45870        1.89991       -1.12933
B          1.92870        2.54752       -0.54708
B          3.22647        1.58960       -0.24424
B          4.59285        0.61734        0.14012
B          4.55241        2.28674        0.66483
B          3.26376        3.17199        0.28189
B          1.93375        4.08174        0.35060
B          0.50816        3.42030       -0.41898
B          0.55714        4.70679        0.56099
B         -2.27141        3.38561        0.22131
B         -0.85105        4.16184        0.34950
B         -2.42610        1.83716       -0.50461
B         -3.65549        2.61139        0.34890
B         -3.85859        1.05750       -0.16474
B         -1.01128        2.68991       -0.58934
B         -1.26309       -2.10350       -0.13415
B          3.25669       -0.07860       -0.68177
B         -1.10052        1.02218       -1.04938
B          4.21268       -2.61130        0.61795
B         -5.38582       -1.37405        0.45920
B         -5.31165        0.31715        0.16074
B         -5.03525        1.87383        0.76302
B         -6.19889        0.99903        1.33696
B         -6.40707       -0.46218        1.13385
B          1.86589        0.85644       -0.99355
B         -1.46396       -3.92285       -0.59628
B          0.19414       -1.59319       -0.84027
B          5.31554       -1.74298        1.15991
B          5.69996       -0.25249        1.10590
B          5.62991        1.29549        1.12728
B          0.28694        0.11840       -1.11827
