45
isomer_2047.log	Energy: -113524.0921068
B          2.59245        1.63220       -0.70639
B          2.64229        3.35522       -0.27510
B          1.33560        4.18824       -0.22702
B         -0.13085        3.46513       -0.75530
B          1.27401        0.89950       -1.31355
B         -1.64329        0.97284       -0.95151
B         -1.45492        4.26975        0.11484
B          3.84576        0.84647       -0.07502
B         -1.56280        2.62966       -0.49878
B          3.84906        2.46294        0.10291
B         -0.03683        4.82966        0.08355
B         -2.81244        3.44504        0.28900
B         -2.94570        1.85445       -0.15833
B         -4.17471        0.93856        0.55857
B         -0.34518       -1.70451       -1.31275
B         -1.32347       -2.33631        0.00537
B         -2.88811       -1.59573        0.01971
B         -4.35028       -0.69560        0.27787
B         -4.08694       -2.35175        0.91993
B         -2.81099       -3.16410        0.37358
B         -1.51463       -4.06377       -0.04090
B         -0.34372       -3.36989       -1.39313
B         -0.28659       -4.80336       -0.45339
B          1.95746       -3.16950        0.25000
B          1.12064       -4.22248       -0.62264
B          2.35191       -1.59517       -0.52390
B          3.27615       -2.36029        0.69314
B          3.57985       -0.84314        0.16991
B          1.16687       -2.52753       -1.20335
B          1.31426        2.59456       -1.07626
B         -3.10420        0.12154       -0.47108
B          1.24848       -0.75645       -1.32180
B         -4.10704        2.62097        0.90502
B          5.00546        1.58555        0.92075
B          4.94207       -0.08894        0.72288
B          4.55467       -1.63773        1.36038
B          5.56677       -0.74899        2.10243
B          5.81248        0.70437        1.88081
B         -1.57008       -0.70596       -0.69502
B          0.13105       -3.10502        0.33232
B         -0.23956        1.87915       -1.31682
B         -5.16569        1.72119        1.51568
B         -5.33774        0.15249        1.53355
B         -5.12437       -1.38706        1.48803
B         -0.20716        0.06379       -1.22819
