45
isomer_2048.log	Energy: -113646.5488516
B          2.29291        1.71064        0.02582
B          2.12700        3.38505        0.45253
B          0.67357        4.02696        0.50173
B         -0.75964        2.90470        0.57556
B          0.96693        0.73676       -0.26722
B         -1.83412        0.56387       -0.79236
B         -2.20200        3.82161        0.13159
B          3.84294        1.19662       -0.35953
B         -2.00762        2.21571       -0.41846
B          3.61753        2.70413        0.39814
B         -0.81477        4.47434        0.33386
B         -3.51479        2.97108       -0.19395
B         -3.33117        1.31896       -0.69844
B         -4.70094        0.42625       -1.00570
B         -0.24721       -1.80022       -1.24066
B         -1.16730       -1.86040        0.33087
B         -2.91124       -1.71275       -0.04339
B         -4.58030       -0.89856        0.10168
B         -3.93276       -2.25424        1.17307
B         -2.43916       -2.66003        1.20583
B         -1.03122       -3.44026        1.14778
B         -0.03060       -3.14792       -0.20033
B          0.28429       -4.16714        0.97399
B          2.88094       -3.18150       -0.42323
B          1.56701       -3.83780        0.17034
B          2.68125       -1.54426       -0.76365
B          4.18158       -2.26646       -0.29636
B          4.05014       -0.58752       -0.58093
B          1.37360       -2.54427       -0.95654
B          0.80507        2.40870        0.11584
B         -3.32065       -0.43229       -1.09159
B          1.15084       -0.82939       -1.02325
B         -4.79758        2.00443       -0.25167
B          5.03648        2.01769        0.59731
B          5.24364        0.37184        0.09181
B          5.40043       -1.34632        0.17823
B          6.46816       -0.34580        0.80932
B          6.31396        1.14410        0.98686
B         -1.75013       -1.10829       -1.25057
B          2.51149        0.15804       -0.77761
B         -0.58650        1.32637        0.11231
B         -5.66184        0.79211        0.23308
B         -6.03054       -0.54682        0.88172
B         -5.38697       -1.78865        1.23737
B         -0.43073       -0.37908       -0.13121
