45
isomer_2050.log	Energy: -112065.0241565
B         -2.60400       -1.50859       -0.60111
B         -2.63833       -3.15864       -0.27896
B         -1.25420       -4.03057       -0.05377
B          0.22711       -3.21509       -0.56203
B         -1.12088       -0.64217       -0.86299
B          1.75297       -0.73840       -0.92523
B          1.59177       -4.05772        0.11031
B         -4.04192       -0.60249       -0.50900
B          1.63020       -2.35899       -0.42221
B         -4.02708       -2.31039       -0.11168
B          0.15021       -4.69104        0.21430
B          3.04335       -3.24673        0.16658
B          3.11388       -1.60755       -0.34211
B          4.58798       -0.84831        0.19516
B          0.38101        1.85263       -0.91356
B          1.77397        2.49161       -0.25167
B          3.21043        1.64996       -0.22758
B          4.63592        0.76902        0.25203
B          4.51226        2.32149        0.55042
B          3.23593        3.25069        0.39502
B          1.83499        4.14808        0.39882
B          0.42428        3.43691       -0.32815
B          0.43321        4.85671        0.54999
B         -2.44007        3.53034       -0.04378
B         -1.00725        4.30091        0.23916
B         -2.50273        1.90784       -0.48100
B         -3.87690        2.75609        0.06645
B         -3.99193        1.08415       -0.44970
B         -1.04738        2.69414       -0.60281
B         -1.19745       -2.36912       -0.78083
B          3.24617       -0.06736       -0.68405
B         -1.07293        0.97571       -0.80611
B          4.37209       -2.40785        0.38414
B         -5.33155       -1.48445        0.40939
B         -5.27821        0.15307        0.23293
B         -5.22904        1.97423        0.53099
B         -6.42765        1.03430        1.08968
B         -6.47363       -0.51678        1.03515
B          1.80171        0.90589       -0.86742
B         -1.40999       -2.92735        2.78602
B          0.27885       -1.59385       -1.03474
B          5.89902       -1.75016        0.63558
B          6.14411       -0.04682        0.76233
B          5.99760        1.68705        0.82705
B         -1.30589       -1.60038        0.30900
