45
isomer_2051.log	Energy: -113478.3272947
B          2.57522       -1.70652        0.62418
B          2.48435       -3.11860       -0.42807
B          1.12371       -3.87595       -0.49175
B         -0.13526       -3.32372        0.58012
B          1.28174       -0.72924        0.72999
B         -1.67020       -0.75433        0.72597
B         -1.64925       -4.12825       -0.13424
B          3.93934       -0.81008        0.26100
B         -1.65858       -2.47670        0.36933
B          3.84365       -2.30030       -0.38602
B         -0.29790       -4.53843       -0.55066
B         -3.02115       -3.30684       -0.07535
B         -3.11454       -1.70184        0.39031
B         -4.57798       -0.84678        0.15617
B         -0.34745        1.86494        1.04523
B         -1.76021        2.55482        0.44705
B         -3.15254        1.75103        0.22759
B         -4.49731        0.79150       -0.21465
B         -4.42434        2.45505       -0.72398
B         -3.07158        3.29229       -0.35146
B         -1.70299        4.14801       -0.40974
B         -0.32011        3.38604        0.35462
B         -0.29850        4.69741       -0.56803
B          2.48824        3.31671       -0.06177
B          1.11276        4.09874       -0.27572
B          2.52493        1.65565        0.56320
B          3.83135        2.50789       -0.11451
B          3.94193        0.92921        0.28686
B          1.16538        2.60539        0.63824
B          1.33015       -2.74530        1.06815
B         -3.25836        0.05189        0.67258
B          1.15973        0.90436        1.01968
B         -4.38566       -2.46328       -0.45870
B          5.22318       -1.51792       -0.64917
B          5.28787        0.07901       -0.10129
B          5.22183        1.72793       -0.51353
B          6.31823        0.87562       -1.14361
B          6.32106       -0.59995       -1.21753
B         -1.77929        0.89506        0.94639
B          1.11175       -2.05113       -0.53512
B         -0.18113       -1.60556        0.45619
B         -5.44555       -1.54333       -1.01438
B         -5.72786       -0.02386       -1.06320
B         -5.56191        1.52113       -1.13864
B         -0.24675        0.05823        1.05825
