45
isomer_2052.log	Energy: -113345.6015050
B          2.56044        1.72930       -0.50504
B          2.44713        3.39054        0.11461
B          1.04648        4.15372        0.29298
B         -0.38961        3.37571       -0.34485
B          1.14915        0.90913       -0.80604
B         -1.77549        0.78953       -0.74676
B         -1.80164        4.10838        0.38421
B          3.99441        0.99598       -0.40671
B         -1.81400        2.50981       -0.36608
B          3.80246        2.52750        0.30488
B         -0.40654        4.69671        0.55451
B         -3.18464        3.23056        0.28404
B         -3.22299        1.65909       -0.28520
B         -4.67724        0.74575       -0.16272
B         -0.16845       -1.84176       -1.16664
B         -1.64710       -2.53637       -0.46951
B         -3.06000       -1.73860       -0.19901
B         -4.46110       -0.86360        0.21833
B         -4.38685       -2.50980        0.65861
B         -2.91330       -3.21711        0.43495
B         -1.49562       -3.93913        0.70478
B         -0.17039       -3.19664        0.05317
B         -0.06746       -4.41934        1.03551
B          2.71216       -3.17507        0.03505
B          1.34030       -3.87209        0.58788
B          2.74170       -1.61688       -0.94539
B          4.00196       -2.29664        0.03711
B          4.06692       -0.71555       -0.46482
B          1.29698       -2.50466       -0.33670
B          1.13757        2.57853       -0.37167
B         -3.26644       -0.06370       -0.66261
B          1.25737       -0.62320       -1.04758
B         -4.52555        2.37751        0.53711
B          5.10740        1.81532        0.77940
B          5.19971        0.17111        0.39331
B          5.15573       -1.49260        0.69995
B          6.18083       -0.55416        1.45417
B          6.21509        0.93039        1.42542
B         -1.70372       -0.88668       -0.99106
B          1.42209       -2.01919       -1.84951
B         -0.38328        1.79516       -0.83110
B         -5.60988        1.38474        0.96857
B         -5.83136       -0.13078        0.94488
B         -5.60797       -1.68416        0.97453
B         -0.26527        0.02326       -0.91894
