45
isomer_2055.log	Energy: -113659.1935313
B          2.58088       -1.71668        0.44253
B          2.59475       -3.31230       -0.03760
B          1.21663       -4.15645       -0.15595
B         -0.24450       -3.41131        0.45370
B          1.12279       -0.84670        0.81066
B         -1.70892       -0.84285        0.73328
B         -1.61526       -4.18084       -0.32281
B          4.00691       -0.81017        0.27532
B         -1.69457       -2.53992        0.29602
B          4.00071       -2.47574       -0.10527
B         -0.17850       -4.75746       -0.42022
B         -3.00945       -3.35333       -0.30832
B         -3.14301       -1.76465        0.22313
B         -4.58942       -0.92232       -0.04106
B         -0.38052        1.84325        1.07681
B         -1.82251        2.52289        0.46247
B         -3.19623        1.67689        0.26107
B         -4.57313        0.76938       -0.14466
B         -4.46595        2.40604       -0.70068
B         -3.12708        3.25308       -0.28634
B         -1.78540        4.13251       -0.29027
B         -0.37901        3.39644        0.48507
B         -0.38856        4.74206       -0.42215
B          2.38979        3.34630       -0.12978
B          1.00693        4.16172       -0.21066
B          2.48638        1.79145        0.44276
B          3.79887        2.56510       -0.33827
B          3.92552        0.94126        0.14192
B          1.09679        2.61007        0.70078
B          1.20727       -2.56719        0.63551
B         -3.28325       -0.04064        0.62127
B          1.10863        0.85899        1.01405
B         -4.39642       -2.52580       -0.68259
B          5.27338       -1.64168       -0.59115
B          5.27129        0.08294       -0.38434
B          5.09702        1.75876       -0.83337
B          6.19848        0.82053       -1.45673
B          6.29397       -0.69798       -1.33681
B         -1.79166        0.83033        0.92295
B          2.55171        0.03508        0.59738
B         -0.30724       -1.79279        0.86904
B         -5.50184       -1.61544       -1.16343
B         -5.72835       -0.07604       -1.14002
B         -5.56630        1.47363       -1.17935
B         -0.35161        0.02960        1.21612
