45
isomer_2056.log	Energy: -113247.9131941
B         -2.50427        1.73101        0.38894
B         -2.43607        3.33317       -0.33131
B         -1.06443        4.11504       -0.47187
B          0.36414        3.46827        0.34292
B         -1.02411        1.00218        0.77241
B          1.70953        0.86853        0.86478
B          1.75528        4.09440       -0.41237
B         -3.90768        0.98257        0.29499
B          1.79480        2.56882        0.50211
B         -3.79529        2.51138       -0.31830
B          0.36958        4.66901       -0.69688
B          3.14956        3.24855       -0.22317
B          3.16382        1.70479        0.36982
B          4.58301        0.78125        0.13597
B          0.24561       -1.78299        1.45724
B          1.58936       -2.36770        0.34745
B          3.09442       -1.73547        0.38845
B          4.43770       -0.84069       -0.06273
B          4.38682       -2.49447       -0.47871
B          2.92439       -3.22025       -0.27532
B          1.52452       -4.00582       -0.53173
B          0.18479       -2.99899       -0.23687
B          0.13066       -4.50144       -0.82702
B         -2.57903       -3.12016       -0.24339
B         -1.28979       -3.87990       -0.67134
B         -2.58846       -1.64614        0.89448
B         -3.87254       -2.27408       -0.11767
B         -3.94756       -0.74697        0.44519
B         -1.24180       -2.13810       -0.16329
B         -1.10744        2.62278        0.38983
B          3.17295       -0.00731        0.70309
B         -1.02498       -0.57246        0.67904
B          4.50291        2.41168       -0.48856
B         -5.21078        1.73733       -0.58193
B         -5.28859        0.14025        0.00188
B         -5.24082       -1.49204       -0.40865
B         -6.36449       -0.61470       -1.01130
B         -6.35608        0.86245       -1.06416
B          1.49832       -0.72978        0.90234
B         -1.26744       -1.96806        1.66877
B          0.32187        1.84699        0.94297
B          5.59184        1.44361       -0.91502
B          5.78816       -0.11019       -0.87003
B          5.58545       -1.63903       -0.87020
B          0.24216       -1.25732       -0.22087
