45
isomer_2057.log	Energy: -113511.4899980
B          2.27352        1.84088       -0.33768
B          2.06164        3.40422        0.43766
B          0.64340        4.10640        0.45256
B         -0.71764        3.22015       -0.15625
B          0.96630        0.88593       -0.83720
B         -1.85905        0.61278       -0.75736
B         -2.19814        3.94016        0.24318
B          3.68584        1.11634       -0.04188
B         -2.06136        2.25501       -0.40430
B          3.53742        2.74284        0.44919
B         -0.86243        4.62466        0.53662
B         -3.51552        3.00838        0.01060
B         -3.46068        1.42421       -0.44727
B         -4.84406        0.42277       -0.43959
B         -0.28478       -1.68822       -1.14331
B         -1.48277       -2.44188       -0.14380
B         -3.04252       -1.92134       -0.20305
B         -4.53157       -1.13015        0.09062
B         -4.20788       -2.63442        0.86285
B         -2.70608       -3.24581        0.69294
B         -1.18788       -3.76661        0.89164
B          0.00501       -3.16084       -0.25669
B          0.28694       -3.81933        1.19341
B          2.87592       -3.09084       -0.35457
B          1.60855       -3.25468        0.58852
B          2.74266       -1.48706       -1.33574
B          4.15531       -2.23415       -0.33703
B          3.89383       -0.60263       -0.43277
B          1.33663       -2.36665       -0.93437
B          0.81800        2.54862       -0.26977
B         -3.35990       -0.30183       -0.82129
B          1.15515       -0.71259       -1.19793
B         -4.85533        2.12162        0.18052
B          4.90609        1.99212        0.77762
B          5.18325        0.39040        0.10248
B          5.42286       -1.31043        0.11227
B          6.38912       -0.37519        0.85190
B          6.09509        1.06618        1.24389
B         -1.74104       -0.98524       -1.00994
B          2.48869       -1.54427        0.48979
B         -0.56091        1.56480       -0.67410
B         -5.88327        1.09644        0.59232
B         -5.93205       -0.43268        0.76977
B         -5.52776       -1.90612        1.05809
B          2.29142        0.02806       -0.09254
