45
isomer_2058.log	Energy: -112483.9804638
B          2.62082       -1.65495        0.34170
B          2.61591       -3.28592       -0.06761
B          1.21083       -4.11561       -0.32086
B         -0.24658       -3.29757        0.24869
B          1.15983       -0.77293        0.66795
B         -1.71450       -0.81238        0.76176
B         -1.63678       -4.07466       -0.44973
B          4.07672       -0.77541        0.27923
B         -1.63247       -2.40618        0.17227
B          4.02053       -2.45912       -0.20758
B         -0.21049       -4.73149       -0.60547
B         -3.07115       -3.23174       -0.44450
B         -3.10049       -1.62078        0.15096
B         -4.56410       -0.80351       -0.32654
B         -0.28739        1.74643        0.86949
B         -1.67392        2.44857        0.26016
B         -3.12832        1.63951        0.20999
B         -4.57792        0.81520       -0.29723
B         -4.42441        2.37841       -0.51472
B         -3.12667        3.27124       -0.32677
B         -1.70690        4.13815       -0.30104
B         -0.30342        3.36013        0.36922
B         -0.29207        4.82444       -0.43246
B          2.55876        3.40879        0.05359
B          1.13964        4.22301       -0.16989
B          2.59163        1.76440        0.40361
B          3.97724        2.61170       -0.11577
B          4.06231        0.91267        0.30979
B          1.15504        2.57330        0.58540
B          1.19830       -2.49430        0.49366
B         -3.19564       -0.09850        0.57548
B          1.14601        0.84634        0.69726
B         -4.38400       -2.35498       -0.60041
B          5.33629       -1.63405       -0.70091
B          5.32023       -0.00746       -0.43749
B          5.30674        1.82760       -0.63824
B          6.47828        0.89388       -1.26110
B          6.49153       -0.65854       -1.28920
B         -1.72855        0.83331        0.79155
B          0.55272       -1.52800        2.66915
B         -0.25794       -1.70300        0.80704
B         -5.89927       -1.65317       -0.79720
B         -6.10915        0.05923       -0.83061
B         -5.92616        1.79066       -0.80547
B          0.17893       -0.19272        0.22281
