45
isomer_2059.log	Energy: -113441.8039551
B          2.45732       -1.74663        0.39150
B          2.62129       -3.19257       -0.81620
B          1.34008       -4.09545       -0.82968
B          0.04977       -3.24324        0.39204
B          1.27586       -0.64215        1.02818
B         -1.69199       -0.77802        1.01484
B         -1.41719       -3.97202       -0.23733
B          3.68679       -0.66546        0.00720
B         -1.57516       -2.48016        0.57657
B          3.70485       -2.14013       -0.67297
B         -0.09346       -4.49377       -0.67152
B         -2.86014       -3.25672       -0.15148
B         -3.04259       -1.72508        0.33327
B         -4.41887       -0.87934       -0.20885
B         -0.38499        1.88118        0.96763
B         -1.82524        2.55724        0.44310
B         -3.20102        1.69928        0.15698
B         -4.63815        0.75854        0.04208
B         -4.47607        2.38881       -0.70476
B         -3.16376        3.26336       -0.37037
B         -1.79414        4.13410       -0.44721
B         -0.41105        3.41835        0.31631
B         -0.40833        4.74174       -0.58400
B          2.40994        3.43265       -0.08713
B          1.02192        4.19936       -0.28268
B          2.47493        1.80089        0.50426
B          3.83071        2.67071       -0.11050
B          3.76304        1.00253        0.04339
B          1.11324        2.67469        0.57995
B          1.79411       -3.42571        0.57685
B         -3.25827       -0.00637        0.65848
B          1.15380        0.95181        1.04979
B         -4.29073       -2.53908       -0.58084
B          5.13989       -1.34104       -0.72408
B          5.18774        0.19513       -0.08625
B          5.15588        1.90633       -0.47621
B          6.24513        0.97831       -1.07484
B          6.34780       -0.50587       -1.05615
B         -1.76967        0.87062        0.72236
B          1.15321       -2.29602        1.42061
B         -0.28950       -1.65493        1.30842
B         -5.46281       -1.72331       -1.07343
B         -5.69685       -0.17741       -1.10535
B         -5.50618        1.36070       -1.15630
B         -0.25112        0.09415        0.97434
