45
isomer_0206.log	Energy: -113382.4908069
B          2.50187        1.80786       -0.55813
B          2.40711        3.41847        0.01531
B          1.03848        4.21489        0.17635
B         -0.38785        3.47791       -0.52689
B          1.12788        1.03123       -1.11173
B         -1.82317        0.90968       -0.97986
B         -1.74266        4.14023        0.34159
B          3.91532        0.99162       -0.23160
B         -1.80876        2.59942       -0.49515
B          3.76671        2.56910        0.25352
B         -0.34934        4.75766        0.46310
B         -3.09749        3.24780        0.36601
B         -3.14655        1.69166       -0.17443
B         -4.51229        0.73341        0.28161
B         -0.30232       -1.60191       -1.12592
B         -1.68585       -2.45860       -0.53117
B         -3.11818       -1.70424       -0.29778
B         -4.54826       -0.94196        0.00697
B         -4.26193       -2.56729        0.65256
B         -2.89748       -3.35445        0.20036
B         -1.49174       -4.04844        0.19125
B         -0.16064       -3.19947       -0.55531
B          0.00538       -4.65208        0.23401
B          2.53166       -3.13911        0.03654
B          1.51116       -4.44308       -0.08634
B          2.67860       -1.41281       -0.64485
B          3.87243       -2.20028        0.28212
B          4.03870       -0.69606       -0.38903
B          1.23694       -2.12994       -0.52639
B          1.13356        2.71310       -0.76131
B         -3.27685        0.00292       -0.64079
B          1.22935       -0.53728       -1.02774
B         -4.38555        2.37413        0.83075
B          4.98488        1.77816        0.88145
B          5.25273        0.17908        0.38099
B          5.22302       -1.51309        0.70192
B          6.27166       -0.61202        1.39638
B          6.07796        0.85121        1.57616
B         -1.70509       -0.77611       -0.82974
B          0.94135       -3.22020        0.69473
B         -0.39297        1.93728       -1.19167
B         -5.46776        1.41482        1.34217
B         -5.59581       -0.12929        1.28618
B         -5.28624       -1.64907        1.25886
B         -0.30200        0.14513       -1.16511
