45
isomer_2060.log	Energy: -113458.7258906
B          2.56296       -1.61214        0.43201
B          2.51665       -3.31661       -0.05789
B          1.21857       -4.12766        0.18426
B         -0.23537       -3.33074        0.94123
B          1.21452       -0.74548        0.83812
B         -1.58188       -0.75101        0.51896
B         -1.56362       -4.14017       -0.00211
B          3.88918       -0.85779        0.09723
B         -1.41623       -2.41305        0.05597
B          3.79769       -2.45682       -0.32122
B         -0.18902       -4.71786        0.07892
B         -2.88061       -3.28389       -0.29405
B         -3.00569       -1.71512        0.11677
B         -4.46404       -0.86092       -0.10818
B         -0.32340        1.81837        1.20855
B         -1.70453        2.57090        0.47246
B         -3.08542        1.75160        0.22294
B         -4.35911        0.79446       -0.39843
B         -4.32790        2.47073       -0.77014
B         -3.00860        3.32640       -0.27244
B         -1.63864        4.16027       -0.20261
B         -0.26792        3.43586        0.65069
B         -0.21393        4.70766       -0.31670
B          2.54515        3.37958        0.06080
B          1.19776        4.14494       -0.01803
B          2.55278        1.65812        0.63738
B          3.80539        2.51063       -0.19431
B          3.90773        0.90778        0.15486
B          1.20605        2.57513        0.75012
B          1.08037       -2.40961        0.24890
B         -3.15208        0.00493        0.50334
B          1.20321        0.93339        1.06242
B         -4.21317       -2.49706       -0.75921
B          5.11411       -1.61378       -0.87422
B          5.15371        0.02921       -0.44669
B          5.09908        1.68515       -0.76425
B          6.13197        0.79221       -1.51382
B          6.13181       -0.70437       -1.55543
B         -1.74903        0.92666        0.98612
B         -0.24764        0.00371        1.24442
B         -0.29023       -1.73495        1.46069
B         -5.31338       -1.55566       -1.26533
B         -5.57079       -0.03263       -1.27505
B         -5.42216        1.54349       -1.28508
B         -0.10430       -1.25386       -0.23197
