45
isomer_2062.log	Energy: -112546.1903507
B          2.60556       -1.66845        0.41165
B          2.59871       -3.30395        0.02088
B          1.19290       -4.13304       -0.23030
B         -0.26542       -3.30500        0.32225
B          1.14510       -0.77920        0.72016
B         -1.72978       -0.81056        0.79930
B         -1.65389       -4.08660       -0.37459
B          4.06397       -0.79323        0.34683
B         -1.64865       -2.41116        0.22841
B          4.00611       -2.48223       -0.12109
B         -0.22845       -4.74864       -0.51536
B         -3.08615       -3.24017       -0.38649
B         -3.11457       -1.62246        0.19046
B         -4.57361       -0.80711       -0.30399
B         -0.29684        1.74583        0.88544
B         -1.67840        2.44437        0.26088
B         -3.13455        1.63835        0.21227
B         -4.58353        0.81186       -0.29316
B         -4.42497        2.37212       -0.52760
B         -3.12600        3.26385       -0.34299
B         -1.70422        4.12753       -0.31966
B         -0.30622        3.35376        0.36678
B         -0.28701        4.80881       -0.45144
B          2.55769        3.39183        0.06566
B          1.14180        4.20691       -0.17452
B          2.58461        1.75145        0.43452
B          3.97503        2.58939       -0.08717
B          4.05362        0.89512        0.35812
B          1.14911        2.56587        0.59955
B          1.18017       -2.50253        0.56566
B         -3.20813       -0.09522        0.59714
B          1.13518        0.84033        0.73099
B         -4.39597       -2.36203       -0.55926
B          5.32649       -1.66605       -0.61684
B          5.31312       -0.03653       -0.37202
B          5.30528        1.79615       -0.59369
B          6.47772        0.85254       -1.19972
B          6.48723       -0.70012       -1.21011
B         -1.73986        0.83540        0.81031
B          1.42897       -0.34561       -0.41672
B         -0.27570       -1.70416        0.86236
B         -5.90843       -1.65880       -0.77198
B         -6.11384        0.05362       -0.82595
B         -5.92665        1.78477       -0.81954
B         -0.31751       -0.86702        1.72458
