45
isomer_2063.log	Energy: -113372.5418451
B         -2.67700        1.48347        0.81322
B         -2.71726        3.22390        0.24332
B         -1.41432        4.03244        0.06139
B          0.10755        3.30367        0.48694
B         -1.23409        0.75066        1.14114
B          1.71757        0.90308        0.73919
B          1.39624        4.15417       -0.29206
B         -4.01967        0.74321        0.25720
B          1.61661        2.55732        0.47189
B         -3.96202        2.33703        0.02104
B         -0.04626        4.66586       -0.31858
B          2.81094        3.41929       -0.42053
B          3.03559        1.85573        0.05957
B          4.50998        1.04914       -0.32720
B          0.07438       -1.87795        1.30760
B          1.81051       -2.40218        0.96735
B          3.21409       -1.55361        0.34585
B          4.33679       -0.60534       -0.56412
B          4.25522       -2.27985       -0.82017
B          3.03812       -3.07574       -0.03369
B          1.76509       -3.99792       -0.04962
B          0.34772       -3.28435        0.42945
B          0.41940       -4.63611       -0.38856
B         -2.37391       -3.28338       -0.51662
B         -1.00787       -4.04331       -0.42351
B         -2.44117       -1.58819        0.01892
B         -3.71442       -2.47007       -0.69268
B         -3.87913       -0.93194       -0.17329
B         -1.23818       -2.55818        0.48931
B         -1.31911        2.35260        0.59066
B          3.34582        0.19470        0.55336
B         -1.19355       -0.85653        0.78587
B          4.09797        2.64654       -0.99916
B         -5.30964        1.56199       -0.51120
B         -5.26979       -0.11833       -0.39543
B         -5.10070       -1.65927       -1.09665
B         -6.24229       -0.73059       -1.56860
B         -6.34791        0.73378       -1.30173
B          2.15736       -0.62255        1.41216
B          1.18573       -1.39621        2.28566
B          0.24441        1.65353        0.97279
B          5.07989        1.68898       -1.66797
B          5.36810        0.16301       -1.67530
B          5.24073       -1.40047       -1.58374
B          0.33247       -0.10204        1.36651
