45
isomer_2064.log	Energy: -112692.1894774
B         -2.51066       -1.65543       -0.52954
B         -2.52409       -3.29517       -0.15718
B         -1.12923       -4.14120        0.09855
B          0.34276       -3.32185       -0.43016
B         -1.03835       -0.77761       -0.81354
B          1.83672       -0.83718       -0.86457
B          1.71629       -4.12519        0.27154
B         -3.96081       -0.76627       -0.46931
B          1.73387       -2.44316       -0.31257
B         -3.92454       -2.46089       -0.01990
B          0.28296       -4.77430        0.39071
B          3.15676       -3.29348        0.30714
B          3.20715       -1.66981       -0.25123
B          4.66925       -0.87484        0.26679
B          0.43038        1.73437       -0.93608
B          1.81254        2.41188       -0.29005
B          3.25998        1.59067       -0.23611
B          4.69549        0.74397        0.27430
B          4.55021        2.30303        0.52471
B          3.26215        3.20988        0.33731
B          1.84939        4.08811        0.30964
B          0.45065        3.33624       -0.39927
B          0.43782        4.78219        0.43505
B         -2.41560        3.39993       -0.12612
B         -0.99410        4.19791        0.13724
B         -2.45525        1.76413       -0.51368
B         -3.84237        2.61022        0.00363
B         -3.93345        0.92190       -0.46148
B         -1.01009        2.56577       -0.65531
B         -1.09221       -2.50212       -0.67882
B          3.32006       -0.13915       -0.63974
B         -1.01211        0.84175       -0.80603
B          4.47351       -2.43063        0.50275
B         -5.24159       -1.63697        0.47192
B         -5.20946       -0.00504        0.24562
B         -5.18549        1.82488        0.48799
B         -6.37332        0.88647        1.07172
B         -6.39848       -0.66603        1.06452
B          1.86339        0.80861       -0.85693
B         -3.64098       -1.27974        1.36826
B          0.37448       -1.71526       -0.95209
B          5.99073       -1.74516        0.73834
B          6.21272       -0.03563        0.81363
B          6.04294        1.69730        0.82487
B         -2.08003        0.87289        0.45348
