45
isomer_2065.log	Energy: -113434.6938386
B          2.66502       -1.58541        0.35917
B          2.58917       -3.26448       -0.08763
B          1.20881       -4.10292       -0.18394
B         -0.24675       -3.26788        0.21175
B          1.20818       -0.69845        0.60063
B         -1.69442       -0.75413        1.08594
B         -1.62929       -4.18403       -0.12010
B          4.09742       -0.87743        0.40436
B         -1.68974       -2.49169        0.52168
B          3.98890       -2.41946       -0.26262
B         -0.21520       -4.77008       -0.27413
B         -3.01350       -3.29536       -0.11651
B         -3.12317       -1.75097        0.40445
B         -4.40543       -0.82846       -0.26186
B         -0.35210        1.73277        0.93513
B         -1.69672        2.50548        0.27369
B         -3.06899        1.69537       -0.06209
B         -4.53923        0.82978       -0.01444
B         -4.41926        2.47412       -0.71132
B         -3.04542        3.30464       -0.37553
B         -1.63440        4.14566       -0.34996
B         -0.30399        3.37519        0.48784
B         -0.22033        4.72013       -0.36905
B          2.52360        3.23658        0.06126
B          1.17173        4.11518       -0.04568
B          2.60630        1.63007        0.67830
B          3.88362        2.36150       -0.14242
B          4.02173        0.79718        0.42077
B          1.21525        2.55529        0.68057
B          1.27065       -2.45747        0.33530
B         -3.13167        0.01186        0.47199
B          1.13146        0.83716        1.03569
B         -4.42888       -2.52553       -0.45863
B          5.28313       -1.67400       -0.69879
B          5.31209        0.00167       -0.33893
B          5.15862        1.65571       -0.67236
B          6.30843        0.76621       -1.32744
B          6.39022       -0.72137       -1.29897
B         -1.56516        0.74798        0.09535
B         -0.17851       -0.04632       -0.15238
B         -0.25754       -1.64208        0.64089
B         -5.59160       -1.63768       -0.90587
B         -5.74425       -0.06982       -0.98080
B         -5.51240        1.48875       -1.07649
B         -0.32643        0.07671        1.58316
