45
isomer_2068.log	Energy: -113402.8341311
B         -2.56758       -1.42277       -0.41504
B         -2.51215       -3.14853        0.15715
B         -1.37746       -4.12026        0.71571
B          0.15950       -3.24973       -0.56698
B         -1.26323       -0.65915       -1.08630
B          1.70681       -0.77319       -0.75525
B          1.50300       -4.04729        0.17659
B         -3.90764       -0.66792       -0.06954
B          1.66382       -2.48684       -0.50486
B         -3.82031       -2.23290        0.38339
B          0.04852       -4.55605        0.43473
B          2.93499       -3.28555        0.24188
B          3.10540       -1.69781       -0.23961
B          4.58233       -0.87723        0.02893
B          0.37574        1.83853       -1.15219
B          1.82214        2.58588       -0.40829
B          3.17155        1.71175       -0.17998
B          4.51222        0.78459        0.32556
B          4.45366        2.42464        0.81432
B          3.10862        3.28200        0.38630
B          1.74311        4.11655        0.33620
B          0.35602        3.43218       -0.51342
B          0.31410        4.70906        0.44033
B         -2.46758        3.40774       -0.07099
B         -1.07650        4.16763        0.08398
B         -2.54304        1.79110       -0.64370
B         -3.85370        2.62564        0.11056
B         -3.89516        0.99815       -0.12882
B         -1.17568        2.66497       -0.79784
B         -1.29989       -2.34110       -0.95730
B          3.27202        0.02216       -0.58006
B         -1.19077        0.98632       -1.19328
B          4.28554       -2.49980        0.67521
B         -5.15338       -1.45353        0.87657
B         -5.25832        0.19870        0.39027
B         -5.12566        1.88252        0.69585
B         -6.12397        0.97085        1.51235
B         -6.19187       -0.52532        1.53061
B          1.83434        0.94478       -0.96674
B         -1.33706       -3.95032       -0.85370
B          0.27117       -1.53761       -0.88505
B          5.38699       -1.58511        1.21754
B          5.68814       -0.08004        1.21991
B          5.56740        1.50296        1.26070
B          0.27378        0.14936       -1.04573
