45
isomer_2070.log	Energy: -113441.8577345
B          2.46210       -1.74628        0.39608
B          2.63017       -3.19395       -0.80819
B          1.34904       -4.09756       -0.82265
B          0.05556       -3.24361        0.39183
B          1.27815       -0.64038        1.03033
B         -1.68982       -0.78007        1.01009
B         -1.41028       -3.97380       -0.24066
B          3.68925       -0.66394        0.00991
B         -1.56975       -2.48177        0.57192
B          3.71265       -2.14058       -0.66544
B         -0.08521       -4.49545       -0.67040
B         -2.85405       -3.25972       -0.15747
B         -3.03851       -1.72866        0.32627
B         -4.41859       -0.88409       -0.20937
B         -0.38812        1.88190        0.96984
B         -1.82845        2.55675        0.44370
B         -3.19974        1.69340        0.14629
B         -4.63947        0.75387        0.04556
B         -4.48015        2.38389       -0.70472
B         -3.16735        3.25947       -0.37315
B         -1.79981        4.13422       -0.44330
B         -0.41650        3.42280        0.32566
B         -0.41558        4.74587       -0.57595
B          2.40298        3.43586       -0.08817
B          1.01470        4.20449       -0.27674
B          2.47110        1.80664        0.50375
B          3.82345        2.67273       -0.11873
B          3.75456        1.00249        0.03849
B          1.10826        2.67737        0.58238
B          1.79967       -3.42584        0.58326
B         -3.25586       -0.01001        0.65363
B          1.15289        0.95364        1.05161
B         -4.28691       -2.54348       -0.58378
B          5.14482       -1.33566       -0.71856
B          5.18630        0.20546       -0.08958
B          5.14654        1.91120       -0.48830
B          6.23910        0.98558       -1.08470
B          6.34863       -0.49795       -1.05556
B         -1.76942        0.86903        0.71813
B         -0.24989        0.09459        0.97208
B         -0.28764       -1.65480        1.30640
B         -5.46310       -1.72941       -1.07141
B         -5.70016       -0.18429       -1.10079
B         -5.51111        1.35426       -1.15123
B          1.15556       -2.29419        1.42160
