45
isomer_2073.log	Energy: -112025.8245367
B          2.53062        1.68695       -0.53771
B          2.53150        3.32674       -0.16531
B          1.13020        4.16206        0.09045
B         -0.33548        3.33147       -0.43827
B          1.06508        0.79789       -0.82172
B         -1.81036        0.83544       -0.87272
B         -1.71512        4.12425        0.26345
B          3.98754        0.80893       -0.47751
B         -1.71981        2.44214       -0.32069
B          3.93830        2.50321       -0.02806
B         -0.28680        4.78432        0.38263
B         -3.14918        3.28153        0.29905
B         -3.18713        1.65753       -0.25936
B         -4.64309        0.85137        0.25866
B         -0.38436       -1.72527       -0.94430
B         -1.76129       -2.41336       -0.29828
B         -3.21498       -1.60326       -0.24430
B         -4.65693       -0.76759        0.26613
B         -4.49971       -2.32550        0.51651
B         -3.20474       -3.22245        0.32908
B         -1.78529       -4.08983        0.30138
B         -0.39236       -3.32725       -0.40753
B         -0.36845       -4.77308        0.42676
B          2.47429       -3.36899       -0.13439
B          1.05895       -4.17784        0.12895
B          2.50141       -1.73293       -0.52192
B          3.89497       -2.56838       -0.00465
B          3.97311       -0.87941       -0.46972
B          1.06243       -2.54561       -0.66356
B          1.10573        2.52276       -0.68696
B         -3.28831        0.12606       -0.64789
B          1.05124       -0.82162       -0.81424
B         -4.45927        2.40861        0.49466
B          5.26162        1.68939        0.46373
B          5.24199        0.05727        0.23739
B          5.23204       -1.77278        0.47972
B          6.41266       -0.82532        1.06346
B          6.42592        0.72733        1.05629
B         -1.82442       -0.81051       -0.86512
B          2.83155        0.76894        2.01715
B         -0.35489        1.72469       -0.96023
B         -5.97119        1.71154        0.73024
B         -6.18008        0.00035        0.80550
B         -5.99704       -1.73122        0.81670
B          1.47914       -0.84859        0.15655
