45
isomer_2074.log	Energy: -113488.1863539
B         -2.58465       -1.66266       -0.60192
B         -2.54696       -3.27179       -0.04815
B         -1.12783       -4.11235       -0.03010
B          0.34669       -3.42060       -1.13816
B         -1.27441       -0.77368       -1.04067
B          1.66748       -0.74440       -0.82950
B          1.63119       -4.06849        0.00786
B         -3.90386       -0.75415       -0.22173
B          1.48758       -2.32582        0.04501
B         -3.82297       -2.39896        0.15678
B          0.27163       -4.74907       -0.03151
B          2.99411       -3.16632        0.28895
B          3.05247       -1.63295       -0.14194
B          4.35886       -0.64287        0.42472
B          0.23238        1.81194       -1.03007
B          1.65480        2.60799       -0.51458
B          3.05579        1.81601       -0.17602
B          4.50756        0.97081        0.02618
B          4.31446        2.62603        0.64939
B          2.93641        3.41640        0.24497
B          1.54296        4.21556        0.21940
B          0.16779        3.40126       -0.52946
B          0.11261        4.77889        0.28085
B         -2.65019        3.33517       -0.19287
B         -1.26425        4.17844       -0.01249
B         -2.67587        1.69298       -0.67785
B         -3.95645        2.50712        0.12924
B         -4.08315        0.88139       -0.35804
B         -1.29559        2.52885       -0.69103
B         -1.13294       -2.52525       -0.65074
B          3.17372        0.11025       -0.51142
B         -1.27802        0.81391       -1.05348
B          4.30054       -2.33928        0.78468
B         -4.96835       -1.56522        0.97754
B         -4.71983        0.10385        0.94126
B         -5.18073        1.73400        0.74143
B         -6.10502        0.78396        1.52236
B         -5.92717       -0.70605        1.74034
B          1.63951        0.90710       -0.73594
B          0.12047       -3.02305        0.58294
B          0.30396       -1.75888       -1.12870
B          5.44625       -1.40567        1.27202
B          5.61745        0.13272        1.24021
B          5.36244        1.68342        1.18641
B          0.19913        0.00948       -1.11616
