45
isomer_2075.log	Energy: -113012.2376618
B         -2.61117        1.70364        0.42996
B         -2.54809        3.38289       -0.02470
B         -1.11424        4.13481       -0.20992
B          0.26972        3.33673        0.34817
B         -1.25856        0.84662        0.79603
B          1.71641        0.83347        0.75283
B          1.70960        4.07674       -0.35330
B         -4.02738        0.86840        0.27270
B          1.65743        2.44825        0.22099
B         -3.89269        2.51871       -0.18334
B          0.27635        4.69541       -0.48736
B          3.04034        3.23664       -0.38737
B          3.10108        1.62243        0.11935
B          4.48764        0.77848       -0.35638
B          0.35919       -1.95111        1.00844
B          1.70101       -2.55345        0.21791
B          3.08370       -1.70452        0.15480
B          4.44401       -0.83937       -0.33568
B          4.40897       -2.49977       -0.70148
B          2.97325       -3.32228       -0.45399
B          1.57361       -4.15844       -0.43524
B          0.21973       -3.39687        0.38807
B          0.11712       -4.70524       -0.47179
B         -2.64605       -3.29473        0.08923
B         -1.25801       -4.07906       -0.12588
B         -2.73832       -1.63472        0.44878
B         -4.05097       -2.47212       -0.12022
B         -4.08420       -0.83670        0.28804
B         -1.32759       -2.50037        0.64706
B         -1.23825        2.55021        0.58415
B          3.19160        0.02215        0.50520
B         -1.68167       -0.55188        0.71769
B          4.46340        2.43198       -0.65930
B         -5.21575        1.70465       -0.71379
B         -5.25176        0.07584       -0.45976
B         -5.32859       -1.63386       -0.68052
B         -6.37353       -0.71543       -1.34552
B         -6.33378        0.81671       -1.37691
B          1.73932       -0.79743        0.82192
B         -0.03625       -0.66998        0.76783
B          0.19643        1.68874        0.91539
B          5.75545        1.57113       -0.84819
B          5.89971       -0.03022       -0.90534
B          5.66665       -1.62803       -0.94021
B          0.96514        0.63096        2.08165
