45
isomer_2077.log	Energy: -113313.5630860
B         -2.59466        1.64311        0.56744
B         -2.62253        3.37176        0.11826
B         -1.25984        4.15611       -0.09996
B          0.24578        3.45800        0.43966
B         -1.19967        0.93092        0.88519
B          1.68181        0.92180        0.85247
B          1.58441        4.17309       -0.38331
B         -3.96272        0.84470        0.35736
B          1.68965        2.60022        0.31783
B         -3.90669        2.49227       -0.12764
B          0.14027        4.72145       -0.48627
B          2.98927        3.33689       -0.37919
B          3.09607        1.77189        0.16673
B          4.45177        0.87136       -0.25527
B          0.30505       -1.65686        1.45989
B          1.60566       -2.43697        0.26872
B          3.07355       -1.65114        0.20924
B          4.44424       -0.80060       -0.21071
B          4.40115       -2.47718       -0.57234
B          3.01385       -3.25651       -0.29035
B          1.63092       -4.15189       -0.28173
B          0.23064       -3.35881        0.42828
B          0.21899       -4.78599       -0.32543
B         -2.64493       -3.33526       -0.01370
B         -1.23151       -4.12057       -0.10844
B         -2.61994       -1.62301        0.41261
B         -3.92028       -2.47015       -0.20469
B         -3.98367       -0.82654        0.28491
B         -1.21440       -2.49495        0.48977
B         -1.26373        2.61482        0.62956
B          3.16893        0.05696        0.51980
B         -1.19537       -0.81221        0.74407
B          4.43137        2.52026       -0.66204
B         -5.15348        1.70116       -0.69396
B         -5.14239        0.02636       -0.48995
B         -5.18039       -1.62885       -0.76911
B         -6.23011       -0.70369       -1.40294
B         -6.23329        0.80311       -1.35986
B          1.64467       -0.79397        0.86710
B          0.22395        0.10981        1.41783
B          0.31702        1.82350        1.00639
B          5.57804        1.58958       -1.05113
B          5.75782       -0.00369       -1.01388
B          5.57168       -1.54843       -1.00572
B          0.06303       -1.60186       -0.25550
