45
isomer_2083.log	Energy: -113487.8710404
B          2.42634       -1.94528        0.09265
B          2.65200       -3.55043       -0.60013
B          1.34597       -4.42108       -0.75210
B         -0.44527       -2.61553        0.28176
B          2.26702       -0.11891        0.62623
B         -2.27380       -0.75991        1.39952
B         -1.65576       -3.69582       -0.10212
B          3.68492       -0.88026        0.13456
B         -1.95300       -2.29289        0.72219
B          3.86300       -2.57833       -0.42530
B         -0.09916       -4.17000       -0.41687
B         -3.17083       -3.13422       -0.06892
B         -3.55784       -1.68196        0.69795
B         -4.74891       -0.72472       -0.04125
B         -0.17449        1.66693        0.86663
B         -1.61741        2.24767        0.20350
B         -3.12121        1.61667        0.15608
B         -4.73860        0.93793        0.12390
B         -4.32222        2.42278       -0.77326
B         -2.94613        3.12875       -0.45567
B         -1.54665        3.87661       -0.66125
B         -0.18995        3.12835       -0.04544
B         -0.18512        4.52015       -0.81551
B          2.66035        3.33245       -0.12511
B          1.27201        4.04334       -0.43158
B          2.70058        1.84800        0.75277
B          4.05204        2.49075       -0.01717
B          3.77139        0.78709        0.15606
B          1.29279        2.73592        0.60083
B          1.10190       -2.94670       -0.17015
B         -3.55751        0.12810        0.90464
B          0.51316        0.07402        1.01719
B         -4.59435       -2.40822       -0.39483
B          5.21960       -1.79767       -0.49383
B          5.12414       -0.12101       -0.19838
B          5.25829        1.63184       -0.41234
B          6.38453        0.63032       -0.87044
B          6.41422       -0.87261       -0.80585
B         -1.61551        0.66416        0.78732
B          1.40597        1.23250        1.49158
B         -0.78714       -0.96717        0.99404
B         -5.70681       -1.52647       -1.03193
B         -5.81778       -0.00648       -1.12727
B         -5.42994        1.49902       -1.21833
B          0.84517       -1.42770        0.44565
