45
isomer_2084.log	Energy: -113513.0100656
B          3.07919       -1.10557        0.20225
B          3.01233       -2.72958       -0.02650
B          1.79315       -3.63433       -0.14513
B          0.26156       -3.03591        0.27699
B          2.13279        0.03355        0.87255
B         -1.67980       -0.93661        0.83103
B         -0.97249       -4.10727       -0.37716
B          4.55429       -0.51898        0.68401
B         -1.34492       -2.53881        0.44982
B          4.47384       -2.03013       -0.04518
B          0.50945       -4.44547       -0.41396
B         -2.48271       -3.55860       -0.37492
B         -2.88593       -2.03231        0.19273
B         -4.42209       -1.36266       -0.13874
B         -0.67409        1.83814        1.18510
B         -2.15865        2.38987        0.55695
B         -3.43040        1.38473        0.37982
B         -4.48573        0.30175       -0.39722
B         -4.69140        1.94542       -0.73940
B         -3.48517        2.95431       -0.23635
B         -2.22650        3.91144       -0.34988
B         -0.77017        3.35627        0.47564
B         -0.86405        4.54297       -0.61047
B          1.96771        3.29336       -0.27851
B          0.57069        4.06780       -0.35349
B          2.18476        1.78469        0.53033
B          3.23636        2.44879       -0.57508
B          3.53648        0.78419        0.11171
B          0.73386        2.67065        0.70374
B          1.58436       -1.86231        0.62690
B         -3.30557       -0.33632        0.62065
B          0.89810        1.09123        1.35932
B         -3.88020       -2.94542       -0.81490
B          5.77683       -1.17945       -0.37428
B          4.99000        0.34155       -0.60963
B          4.41873        1.72325       -1.34139
B          5.61998        1.01330       -1.95021
B          6.32386       -0.22636       -1.42795
B         -2.02031        0.69251        1.21864
B          0.96636       -0.60147        1.75056
B         -0.09692       -1.61625        1.01537
B         -5.04138       -2.11899       -1.39768
B         -5.53430       -0.65900       -1.36630
B         -5.60925        0.91588       -1.34451
B         -0.56261        0.09613        1.64472
