45
isomer_2085.log	Energy: -113395.7942467
B          2.52062        1.80103       -0.60662
B          2.45138        3.44985       -0.14990
B          1.06706        4.20085        0.02068
B         -0.38015        3.44619       -0.54455
B          1.15622        0.99032       -1.12597
B         -1.84499        0.93809       -0.95143
B         -1.75438        4.12451        0.31938
B          3.91152        1.00207       -0.18612
B         -1.83254        2.57697       -0.40906
B          3.80694        2.61642        0.15309
B         -0.33253        4.73334        0.38923
B         -3.11779        3.27626        0.39144
B         -3.18111        1.70342       -0.15478
B         -4.51981        0.76019        0.32677
B         -0.27739       -1.53661       -0.91430
B         -1.65957       -2.49226       -0.52041
B         -3.10095       -1.71017       -0.23947
B         -4.57465       -0.91054        0.04778
B         -4.27001       -2.52423        0.68651
B         -2.90487       -3.30264        0.24907
B         -1.48225       -4.05965        0.16733
B         -0.15113       -3.26153       -0.60302
B         -0.02075       -4.56367        0.40171
B          2.52419       -3.13050        0.12250
B          1.39488       -4.09385        0.69638
B          2.61545       -1.39599       -0.44282
B          3.87427       -2.19991        0.34679
B          3.97909       -0.66088       -0.19539
B          1.30374       -2.28800       -0.87843
B          1.16130        2.68209       -0.84329
B         -3.28272        0.00946       -0.57834
B          1.25089       -0.62955       -1.05789
B         -4.44557        2.40373        0.83748
B          5.03370        1.86836        0.81631
B          5.24376        0.21623        0.47990
B          5.18342       -1.47785        0.84493
B          6.20446       -0.53472        1.55571
B          6.08820        0.95549        1.60769
B         -1.72552       -0.78607       -0.78563
B          1.35035       -3.91420       -0.89099
B         -0.39869        1.84550       -1.15045
B         -5.53473        1.46136        1.31733
B         -5.66159       -0.11114        1.26192
B         -5.36710       -1.62261        1.24292
B         -0.30065        0.14483       -1.05400
