45
isomer_2087.log	Energy: -113517.8150449
B         -2.57264       -1.68512       -0.41574
B         -2.58586       -3.32126       -0.02838
B         -1.18895       -4.11357        0.22428
B          0.27240       -3.35158       -0.24702
B         -2.57909       -0.00509       -0.81946
B          1.68687       -0.83537       -0.59865
B          1.64054       -4.13362        0.42275
B         -4.01495       -0.84797       -0.46292
B          1.69485       -2.48505       -0.23255
B         -3.97639       -2.50991        0.04219
B          0.21299       -4.70526        0.56538
B          3.07049       -3.34982        0.27548
B          3.18580       -1.77405       -0.25036
B          4.66188       -0.95955       -0.19188
B          0.36552        1.63974       -0.83668
B          1.78812        2.47639       -0.34578
B          3.19964        1.60678       -0.22529
B          4.63935        0.70808       -0.06622
B          4.56510        2.32374        0.52056
B          3.20471        3.22425        0.17100
B          1.88971        4.06085        0.23089
B          0.31057        3.36778       -0.60659
B          0.51557        4.38174        0.70103
B         -2.28030        3.08630        0.41899
B         -0.91273        3.80471        0.60316
B         -2.46741        1.81218       -0.67272
B         -3.74953        2.39425        0.37757
B         -3.95711        0.91746       -0.33639
B         -1.15323        2.75730       -1.15124
B         -1.18278       -2.52232       -0.52903
B          3.26611       -0.09995       -0.68255
B         -1.06146        0.84264       -0.82834
B          4.46047       -2.60066        0.51045
B         -5.27869       -1.69258        0.43833
B         -5.31480        0.01306        0.17226
B         -5.10152        1.65859        0.69806
B         -6.24547        0.71467        1.27616
B         -6.34569       -0.77306        1.12517
B          1.76107        0.76962       -0.68325
B         -1.12045       -0.81583       -0.85473
B          0.31079       -1.67198       -0.75199
B          5.60597       -1.65928        0.90966
B          5.87320       -0.15882        0.83322
B          5.71062        1.41377        0.87871
B         -0.80329        2.09782        0.42244
