45
isomer_2088.log	Energy: -112570.6498905
B          2.63968       -1.65613        0.39443
B          2.62622       -3.29099        0.00118
B          1.21697       -4.11459       -0.24883
B         -0.23737       -3.28212        0.30751
B          1.18299       -0.76207        0.70684
B         -1.69184       -0.78312        0.79092
B         -1.62988       -4.05761       -0.38811
B          4.10114       -0.78611        0.32843
B         -1.61752       -2.38313        0.21744
B          4.03634       -2.47417       -0.14197
B         -0.20709       -4.72460       -0.53236
B         -3.05907       -3.20597       -0.39623
B         -3.08062       -1.58906        0.18324
B         -4.53755       -0.76767       -0.30743
B         -0.24949        1.76791        0.87848
B         -1.62959        2.47242        0.25739
B         -3.08873        1.67176        0.21007
B         -4.54157        0.85131       -0.29411
B         -4.37776        2.41134       -0.52643
B         -3.07524        3.29807       -0.34271
B         -1.65030        4.15655       -0.32053
B         -0.25393        3.37666        0.36230
B         -0.23086        4.83289       -0.45372
B          2.60957        3.40481        0.05627
B          1.19623        4.22539       -0.18021
B          2.63118        1.76378        0.42257
B          4.02373        2.59747       -0.10024
B          4.09694        0.90224        0.34232
B          1.19893        2.58315        0.59134
B          1.21153       -2.48527        0.54964
B         -3.16793       -0.06212        0.59242
B          1.17896        0.85747        0.72016
B         -4.36599       -2.32282       -0.56538
B          5.35882       -1.66202       -0.63877
B          5.35179       -0.03284       -0.39143
B          5.35021        1.80019       -0.61028
B          6.51816        0.85327       -1.21980
B          6.52203       -0.69940       -1.23257
B         -1.69593        0.86284        0.80446
B         -0.18547       -1.01366        2.26971
B         -0.24091       -1.68209        0.85009
B         -5.87626       -1.61379       -0.77440
B         -6.07554        0.09944       -0.82540
B         -5.88207        1.82989       -0.81667
B         -0.40292       -1.16751       -0.52963
