45
isomer_2089.log	Energy: -113463.8703958
B          2.58032       -1.50089        0.55471
B          2.63659       -3.17733        0.13141
B          1.32120       -3.86934       -0.39041
B         -0.09760       -3.04581       -0.07581
B          1.21227       -0.70768        0.71364
B         -1.69172       -0.83751        1.05444
B         -1.48213       -4.06621       -0.53319
B          3.98824       -0.70844        0.29366
B         -1.61672       -2.48433        0.38900
B          3.98137       -2.29860       -0.01855
B         -0.09113       -4.54947       -0.71207
B         -2.86532       -3.29333       -0.34831
B         -3.02566       -1.75843        0.30567
B         -4.39880       -0.89050       -0.20049
B         -0.38100        1.81547        0.89367
B         -1.83006        2.51467        0.53902
B         -3.22855        1.68515        0.33377
B         -4.64311        0.72223        0.15555
B         -4.50676        2.38168       -0.52290
B         -3.19038        3.25185       -0.21681
B         -1.84222        4.11572       -0.36418
B         -0.41927        3.37552        0.29569
B         -0.45670        4.68337       -0.61265
B          2.38110        3.37861       -0.24809
B          0.99833        4.12362       -0.38896
B          2.48742        1.73991        0.56710
B          3.71225        2.56764       -0.31255
B          3.89365        1.03620        0.22671
B          1.06814        2.52830        0.29762
B          1.32372       -2.62324        1.16418
B         -3.25441       -0.05073        0.69982
B          1.13784        0.93617        0.98282
B         -4.31966       -2.53581       -0.62769
B          5.31142       -1.45360       -0.45493
B          5.27517        0.21639       -0.12679
B          5.13507        1.81845       -0.66097
B          6.28482        0.95422       -1.19981
B          6.37419       -0.53005       -1.09940
B         -1.76913        0.82522        0.83859
B          1.25591       -2.05436       -0.50892
B         -0.15415       -1.76876        1.00723
B         -5.51231       -1.71064       -1.00303
B         -5.73967       -0.14445       -0.99019
B         -5.56357        1.37481       -0.98372
B         -0.27899        0.01432        1.15614
