45
isomer_2090.log	Energy: -113416.5326095
B          2.51485       -1.69224        0.41735
B          2.42992       -3.35002       -0.13320
B          1.03709       -4.14689       -0.20988
B         -0.36397       -3.34644        0.34872
B          1.16071       -0.84081        0.87251
B         -1.71869       -0.74836        1.11413
B         -1.77992       -4.12486       -0.18224
B          3.88709       -0.94137        0.07702
B         -1.79596       -2.47415        0.55124
B          3.79574       -2.52798       -0.27914
B         -0.39744       -4.76058       -0.36914
B         -3.11523       -3.20550       -0.13140
B         -3.15056       -1.63109        0.40245
B         -4.43048       -0.70846       -0.24857
B         -0.24665        1.75307        1.05849
B         -1.55812        2.53342        0.29603
B         -2.96461        1.75560        0.10379
B         -4.43512        0.96192       -0.11591
B         -4.21908        2.57450       -0.75441
B         -2.88237        3.38184       -0.30060
B         -1.49239        4.17819       -0.25619
B         -0.16369        3.40732        0.61220
B         -0.06212        4.69343       -0.35085
B          2.64509        3.29264        0.00666
B          1.32712        4.11260       -0.04129
B          2.61234        1.58027        0.60704
B          3.89637        2.38679       -0.22197
B          3.93455        0.79613        0.17900
B          1.29163        2.50705        0.64241
B          1.14862       -2.60067        0.57033
B         -3.13591        0.07566        0.55979
B          1.20369        0.79193        0.88726
B         -4.45318       -2.38492       -0.57836
B          5.16528       -1.73524       -0.74822
B          5.24712       -0.09700       -0.26982
B          5.22814        1.55114       -0.67514
B          6.29644        0.65717       -1.30325
B          6.24641       -0.84308       -1.35117
B         -1.47495        0.77105        0.20714
B         -0.19088       -0.23842       -0.04144
B         -0.32702       -1.74805        0.95617
B         -5.52274       -1.46104       -1.11553
B         -5.59974        0.10853       -1.18671
B         -5.30297        1.64269       -1.26162
B         -0.28443        0.09421        1.65629
