45
isomer_2093.log	Energy: -112045.4421588
B          2.59280       -1.62984        0.34486
B          2.59856       -3.26285       -0.05617
B          1.19867       -4.10534       -0.29564
B         -0.26154       -3.29638        0.27968
B          1.12683       -0.75818        0.67659
B         -1.74638       -0.82074        0.79019
B         -1.64999       -4.08841       -0.40532
B          4.04094       -0.73870        0.26803
B         -1.65521       -2.41680        0.20821
B          3.99533       -2.42528       -0.20987
B         -0.21942       -4.73430       -0.56745
B         -3.09118       -3.25727       -0.39457
B         -3.12976       -1.64359        0.19294
B         -4.60326       -0.84081       -0.27870
B         -0.33970        1.75022        0.87528
B         -1.73607        2.43784        0.27187
B         -3.18406        1.61663        0.23569
B         -4.63022        0.77787       -0.25747
B         -4.49107        2.34115       -0.48389
B         -3.19949        3.24555       -0.30930
B         -1.78677        4.12420       -0.29762
B         -0.37242        3.36116        0.36699
B         -0.37857        4.82140       -0.44214
B          2.48706        3.43169        0.03162
B          1.05980        4.23309       -0.18630
B          2.53585        1.78944        0.38970
B          3.91088        2.64541       -0.14338
B          4.01283        0.94933        0.29017
B          1.09390        2.58743        0.57720
B          1.17830       -2.48004        0.51075
B         -3.23458       -0.11999        0.61040
B          1.09986        0.86105        0.69783
B         -4.41223       -2.39212       -0.54596
B          5.30088       -1.59197       -0.71631
B          5.27320        0.03576       -0.46101
B          5.24323        1.86959       -0.67092
B          6.41818        0.94235       -1.29703
B          6.44403       -0.61003       -1.31738
B         -1.77379        0.82492        0.81176
B          2.16936       -1.23335        2.24530
B         -0.28225       -1.69913        0.83004
B         -5.93454       -1.70378       -0.73596
B         -6.15874        0.00664       -0.77658
B         -5.98987        1.73962       -0.76144
B          0.48063       -0.54346        0.10531
