45
isomer_2094.log	Energy: -113609.6878152
B          1.55384       -1.27980        0.63671
B          1.01972       -2.57511       -1.09829
B         -0.44036       -3.12406       -0.84800
B         -0.56956       -3.17589        0.90917
B          0.03529       -0.22165        1.04701
B         -1.58304       -0.68077        0.71075
B         -2.18551       -2.42609        1.26556
B          3.12658       -0.78707        0.19060
B         -1.72909       -2.05837       -0.53300
B          2.42079       -2.44782       -0.39824
B         -1.87246       -3.70131       -0.02310
B         -3.27764       -2.95154        0.00434
B         -3.06292       -1.29358        0.16936
B         -4.28423       -0.24027       -0.22961
B          0.29678        1.44184        0.76328
B         -0.95198        2.62634        0.31528
B         -2.53584        2.17347        0.06724
B         -4.06025        1.39643       -0.19099
B         -3.62795        3.04807       -0.80378
B         -2.16280        3.67437       -0.34512
B         -0.63680        4.21814       -0.12274
B          0.64289        3.19050        0.40991
B          0.91012        4.60402       -0.07793
B          3.46762        2.72986        0.22131
B          2.25784        3.71686        0.23541
B          3.19188        1.03387        0.39783
B          4.71171        1.70879        0.07322
B          4.52448        0.11814        0.63923
B          2.01649        2.16314        0.78560
B          1.05999       -2.97251        0.52782
B         -2.91247        0.45406        0.47054
B          1.71680        0.44717        0.70119
B         -4.52327       -1.89425       -0.56452
B          3.70551       -2.14194       -1.16244
B          4.59054       -0.87162       -0.63225
B          5.64497        0.55971       -0.55746
B          5.91696       -0.61346       -1.57186
B          4.98290       -1.72790       -1.93014
B         -1.26294        0.99553        0.53049
B          0.54074       -2.02512        1.80786
B         -0.89717       -1.66789        1.93823
B         -5.45772       -0.84440       -1.11100
B         -5.32947        0.75834       -1.22734
B         -4.84673        2.24158       -1.31490
B         -0.12422       -1.57781       -0.07524
