45
isomer_2095.log	Energy: -113378.3806318
B         -2.19397        1.97702        0.27752
B         -1.81437        3.45586       -0.40210
B         -0.32236        4.11867       -0.27042
B          0.86258        3.18648        0.48272
B         -0.94077        0.80173        0.88313
B          1.91079        0.56458        0.81185
B          2.43396        3.86511        0.18642
B         -3.74406        1.37442       -0.01216
B          2.21930        2.22804        0.79021
B         -3.20727        2.84165       -0.76193
B          1.12870        4.60233       -0.19401
B          3.69610        2.89916        0.34545
B          3.52740        1.24288        0.58088
B          4.79783        0.23713        0.16364
B          0.15271       -1.57123        1.01881
B          1.21856       -2.38578       -0.08019
B          2.86981       -1.97643       -0.09620
B          4.43135       -1.33561       -0.35351
B          3.84490       -2.65365       -1.31339
B          2.34726       -3.21305       -1.05687
B          0.87341       -3.83013       -0.90755
B         -0.13430       -3.20923        0.39881
B         -0.61552       -4.22275       -0.77947
B         -2.87405       -2.70071        0.64162
B         -1.75799       -3.65726        0.02393
B         -3.22592       -1.14503        1.40431
B         -4.17238       -1.87577        0.10403
B         -4.15084       -0.22457        0.39154
B         -1.27828       -2.56365        1.38315
B         -0.64056        2.47481        0.33001
B          3.30391       -0.47000        0.64539
B         -1.36322       -0.74339        1.32899
B          4.91666        1.95762       -0.15237
B         -4.48731        2.09432       -1.41748
B         -5.10300        0.66161       -0.68541
B         -5.22642       -1.10421       -0.73428
B         -5.87118       -0.22420       -1.83633
B         -5.51260        1.19363       -2.15417
B          1.64727       -1.02439        0.82369
B         -2.32211       -1.95954        2.27907
B          0.62335        1.50298        0.85397
B          5.79161        0.95130       -0.87710
B          5.70843       -0.56444       -1.21605
B          5.19178       -1.95431       -1.61034
B         -2.53917        0.37799        0.76220
