45
isomer_2096.log	Energy: -113163.2635290
B         -2.45301        1.76077        0.44317
B         -2.42644        3.48718        0.02600
B         -0.98649        4.25831       -0.14491
B          0.44021        3.44242        0.41393
B         -0.99704        1.09049        0.63001
B          1.70532        0.77293        0.85083
B          1.86553        4.12016       -0.31237
B         -3.84904        0.93357        0.22557
B          1.81158        2.45525        0.31772
B         -3.73340        2.58468       -0.18703
B          0.47596        4.77138       -0.43620
B          3.17244        3.18672       -0.30480
B          3.17504        1.60892        0.20012
B          4.49579        0.69380       -0.27787
B          0.26065       -1.83687        1.13084
B          1.57207       -2.50446        0.31383
B          3.00158       -1.75839        0.15937
B          4.39747       -0.93740       -0.31004
B          4.29262       -2.56822       -0.73887
B          2.87271       -3.29429       -0.43257
B          1.49583       -4.11488       -0.44821
B          0.16220       -3.39140        0.40523
B          0.08413       -4.67648       -0.53073
B         -2.66086       -3.35592        0.01898
B         -1.30912       -4.10947       -0.15090
B         -2.62015       -1.65459        0.57160
B         -3.90515       -2.47079       -0.24110
B         -3.91547       -0.79973        0.20409
B         -1.29210       -2.60310        0.72877
B         -1.07591        2.74701        0.58015
B          3.16833       -0.07011        0.52867
B         -1.80741       -0.28005        0.60085
B          4.55547        2.34807       -0.61559
B         -4.97492        1.78533       -0.83798
B         -4.98790        0.12502       -0.62704
B         -5.04873       -1.53977       -0.90881
B         -6.01617       -0.58684       -1.67787
B         -5.99351        0.92829       -1.63631
B          1.63535       -0.89039        0.88579
B         -0.91286        0.29593        1.99297
B          0.43558        1.75972        0.91752
B          5.71530        1.41335       -0.97778
B          5.80943       -0.17066       -1.03264
B          5.53283       -1.71446       -1.09125
B         -1.16774       -1.24100        1.77485
