45
isomer_2097.log	Energy: -113478.0117447
B          2.33803        1.71636       -0.34643
B          2.30191        3.40840       -0.02230
B          1.00381        4.23146       -0.08150
B         -0.42908        3.40814       -0.54347
B          0.98470        0.85857       -1.05088
B         -1.72538        0.80622       -0.85642
B         -1.78724        4.15035        0.16660
B          3.72500        0.95102       -0.00186
B         -1.82005        2.48258       -0.43459
B          3.65607        2.58499        0.29370
B         -0.43362        4.82923        0.16796
B         -3.15950        3.23262        0.24163
B         -3.18697        1.66530       -0.19842
B         -4.49643        0.70690        0.31799
B         -0.19732       -1.57773       -0.68811
B         -1.65928       -2.46272       -0.34372
B         -3.11378       -1.75530       -0.22837
B         -4.57206       -0.94329        0.01248
B         -4.34913       -2.54331        0.66017
B         -2.95431       -3.32562        0.25168
B         -1.54642       -4.14532        0.16315
B         -0.20692       -3.32200       -0.56272
B         -0.15024       -4.72630        0.21942
B          2.40663       -2.97251        0.17919
B          1.20422       -4.00902        0.04550
B          2.65447       -1.63846       -0.95345
B          3.90354       -2.37750        0.12342
B          3.85244       -0.74715       -0.15239
B          1.23572       -2.56334       -1.09340
B          1.04825        2.62949       -0.87988
B         -3.20922       -0.04679       -0.53631
B          2.20791       -0.05163       -0.10730
B         -4.50857        2.38891        0.65294
B          4.97213        1.81731        0.85242
B          5.17903        0.16128        0.36365
B          5.14256       -1.57305        0.65356
B          6.06100       -0.60138        1.48617
B          6.01798        0.91040        1.52632
B         -1.66199       -0.77036       -0.61077
B          1.32247       -1.48195        0.31775
B         -0.40004        1.75356       -1.06266
B         -5.64827        1.45701        1.11007
B         -5.75692       -0.09490        1.13597
B         -5.42946       -1.62061        1.18812
B          1.18433       -0.79985       -1.37490
