45
isomer_2098.log	Energy: -113661.8469990
B          2.50322       -1.73040        0.34676
B          2.46470       -3.35813       -0.06475
B          1.06389       -4.16181       -0.16574
B         -0.34758       -3.39520        0.49786
B          1.12032       -0.88716        0.87746
B         -1.77360       -0.82954        0.89329
B         -1.74271       -4.13599       -0.28619
B          3.97594       -0.90316        0.27017
B         -1.77686       -2.51046        0.44158
B          3.84921       -2.53692       -0.29349
B         -0.33797       -4.72882       -0.40839
B         -3.09497       -3.28068       -0.27552
B         -3.16760       -1.70042        0.25889
B         -4.53243       -0.80045       -0.20933
B         -0.32885        1.81972        1.04565
B         -1.73186        2.53097        0.38012
B         -3.14701        1.74203        0.25118
B         -4.52947        0.86777       -0.16541
B         -4.40539        2.49712       -0.69129
B         -3.03999        3.33104       -0.29229
B         -1.66505        4.15229       -0.31836
B         -0.29289        3.39489        0.47293
B         -0.23528        4.71886       -0.43569
B          2.53966        3.33200       -0.03216
B          1.16041        4.15085       -0.15310
B          2.55684        1.72320        0.48690
B          3.91160        2.50283       -0.22445
B          4.01102        0.86752        0.29470
B          1.18406        2.60770        0.69437
B          1.14244       -2.60697        0.67395
B         -3.29639        0.00841        0.61190
B          1.14504        0.88821        0.89945
B         -4.45864       -2.45609       -0.67212
B          5.12804       -1.72848       -0.78173
B          5.20421       -0.03911       -0.48024
B          5.15861        1.66587       -0.74705
B          6.22416        0.71873       -1.44174
B          6.22244       -0.79679       -1.44574
B         -1.75943        0.84500        0.84877
B          2.58230       -0.02016        0.75688
B         -0.35124       -1.83287        1.11052
B         -5.56254       -1.53472       -1.16578
B         -5.72279        0.02670       -1.17445
B         -5.50497        1.57929       -1.19676
B         -0.34258        0.00337        1.00844
