45
isomer_2099.log	Energy: -113434.6983102
B          2.66806       -1.58106        0.36016
B          2.59331       -3.26218       -0.08493
B          1.21388       -4.10165       -0.18111
B         -0.24296       -3.26748        0.20949
B          1.20986       -0.69557        0.59828
B         -1.69306       -0.75559        1.08454
B         -1.62486       -4.18599       -0.11747
B          4.10068       -0.87523        0.40870
B         -1.68662       -2.49178        0.51953
B          3.99262       -2.41730       -0.25886
B         -0.20989       -4.77103       -0.26997
B         -3.01010       -3.29826       -0.11668
B         -3.12167       -1.75378        0.40388
B         -4.40449       -0.83193       -0.26221
B         -0.35392        1.73372        0.93701
B         -1.69940        2.50515        0.27466
B         -3.07048        1.69297       -0.06205
B         -4.53965        0.82632       -0.01510
B         -4.42176        2.47030       -0.71126
B         -3.04892        3.30251       -0.37406
B         -1.63904        4.14530       -0.34770
B         -0.30779        3.37667        0.49175
B         -0.22567        4.72058       -0.36712
B          2.51989        3.23865        0.06017
B          1.16708        4.11678       -0.04496
B          2.60373        1.63212        0.67813
B          3.87881        2.36305       -0.14599
B          4.01984        0.79961        0.41906
B          1.21235        2.55729        0.68134
B          1.27421       -2.45487        0.33277
B         -3.13173        0.00907        0.47126
B          1.13070        0.83878        1.03722
B         -4.42618       -2.52974       -0.45860
B          5.28722       -1.67197       -0.69437
B          5.31215        0.00478       -0.33854
B          5.15183        1.65648       -0.67927
B          6.30262        0.76778       -1.33380
B          6.39156       -0.71909       -1.29746
B         -1.56576        0.74817        0.09569
B         -0.32622        0.07711        1.58236
B         -0.25490       -1.64077        0.63419
B         -5.58978       -1.64248       -0.90618
B         -5.74363       -0.07482       -0.98212
B         -5.51364        1.48412       -1.07704
B         -0.17829       -0.04472       -0.15338
