45
isomer_0021.log	Energy: -113456.8777755
B         -2.07157       -1.93718       -0.55461
B         -2.14566       -3.61913       -0.15995
B         -0.78766       -4.43503        0.11234
B          0.69623       -3.81373       -0.59906
B         -1.81555       -0.30988       -0.86682
B          1.41358       -0.86716       -0.82204
B          1.95120       -4.13838        0.55295
B         -3.31838       -0.96033       -0.04610
B          1.94917       -2.66984       -0.45695
B         -3.36621       -2.68860        0.18449
B          0.60666       -4.86154        0.58207
B          3.15564       -3.09423        0.57840
B          2.89553       -1.49418        0.06591
B          4.25686       -0.52571        0.36848
B          0.00804        1.98135       -1.03667
B          1.39509        2.66663       -0.48807
B          2.79568        1.87779       -0.20737
B          4.27630        1.09114       -0.06577
B          4.09766        2.74828        0.48264
B          2.70502        3.50966        0.18916
B          1.37419        4.32110        0.25659
B         -0.01225        3.56529       -0.47671
B         -0.04091        4.89826        0.42600
B         -2.81572        3.50682        0.22586
B         -1.45885        4.34634        0.22479
B         -2.83663        2.01681       -0.56333
B         -4.00493        2.44032        0.49989
B         -3.72513        0.81362        0.05737
B         -1.49446        2.84841       -0.68599
B         -0.77253       -2.98220       -0.79178
B          2.88667        0.13141       -0.44503
B         -1.57458        1.22179       -1.16069
B          4.39966       -2.13603        0.89505
B         -4.63769       -1.97189        0.69658
B         -4.77981       -0.31398        0.44891
B         -5.10255        1.33617        0.93200
B         -5.99193        0.22336        1.45803
B         -5.82606       -1.24940        1.33088
B          1.35370        0.89266       -0.68546
B         -0.12094        0.20995       -0.90269
B         -0.54002       -1.35786       -1.21094
B          5.50069       -1.15051        1.16271
B          5.57610        0.38801        1.00636
B          5.26910        1.89273        0.92632
B          0.67727       -2.35111       -1.43773
