45
isomer_0210.log	Energy: -113210.6665927
B          2.49478       -1.57696        0.53804
B          2.91195       -3.38358       -0.34930
B          1.68925       -4.39343       -0.27350
B          0.09027       -3.12345        0.84953
B          1.42316       -0.26508        0.87926
B         -1.39087       -0.79841        0.85361
B         -1.21944       -4.06006       -0.00356
B          3.65765       -0.58112        0.00106
B         -1.37265       -2.43112        0.50215
B          3.87819       -2.17852       -0.43949
B          0.24251       -4.51275       -0.10594
B         -2.59650       -3.38133       -0.24055
B         -2.82128       -1.76914        0.12940
B         -4.29254       -1.08478       -0.23451
B         -0.55452        1.91858        1.23683
B         -1.94683        2.50251        0.55922
B         -3.19504        1.57232        0.16952
B         -4.41912        0.55521       -0.34659
B         -4.45493        2.21337       -0.83408
B         -3.28140        3.16923       -0.25730
B         -2.01553        4.13421       -0.20309
B         -0.60948        3.53645        0.62090
B         -0.66167        4.83031       -0.29004
B          2.15177        3.57547        0.04895
B          0.78624        4.30457       -0.00678
B          2.23027        1.78893        0.60517
B          3.39856        2.75210       -0.23132
B          3.57997        1.12729        0.10543
B          0.89899        2.76332        0.88247
B          1.48842       -2.83084        0.14161
B         -3.09046       -0.12973        0.50117
B          0.90034        1.16107        1.22024
B         -3.96074       -2.69250       -0.80353
B          4.98134       -1.20561       -1.01717
B          4.87506        0.40235       -0.53376
B          4.77920        2.06188       -0.79981
B          5.90200        1.29738       -1.49669
B          5.93365       -0.17613       -1.66216
B         -1.66580        0.83491        0.87549
B          1.19348       -1.86686        1.65970
B         -0.32996       -1.65408        1.82647
B         -5.10428       -1.88916       -1.38148
B         -5.45212       -0.37789       -1.42031
B         -5.40473        1.17643       -1.43950
B          0.35286       -1.31538        0.16425
