45
isomer_2100.log	Energy: -111203.8915204
B          2.60238       -1.62980        0.30704
B          2.60392       -3.26086       -0.10190
B          1.20183       -4.09892       -0.34398
B         -0.25589       -3.28938        0.23681
B          1.13879       -0.75636        0.64455
B         -1.73444       -0.81280        0.76088
B         -1.64690       -4.07485       -0.45055
B          4.05251       -0.74167        0.23300
B         -1.64759       -2.40623        0.17107
B          4.00248       -2.42580       -0.25302
B         -0.21801       -4.72327       -0.61733
B         -3.08614       -3.24043       -0.43425
B         -3.12036       -1.62953        0.16112
B         -4.59247       -0.82105       -0.30506
B         -0.32169        1.75445        0.85694
B         -1.71708        2.44822        0.25835
B         -3.16702        1.63056        0.21973
B         -4.61564        0.79756       -0.27596
B         -4.47309        2.36160       -0.49495
B         -3.17923        3.26213       -0.31734
B         -1.76446        4.13744       -0.30291
B         -0.35119        3.36790        0.35650
B         -0.35479        4.83206       -0.44554
B          2.50809        3.43342        0.01845
B          1.08247        4.23917       -0.19408
B          2.55343        1.78934        0.36851
B          3.92990        2.64469       -0.16187
B          4.02835        0.94630        0.26334
B          1.11354        2.58976        0.56140
B          1.18608       -2.47751        0.47030
B         -3.22119       -0.10773        0.58607
B          1.11562        0.86281        0.67366
B         -4.40534       -2.37149       -0.58004
B          5.30943       -1.59308       -0.75680
B          5.28580        0.03345       -0.49359
B          5.25988        1.86834       -0.69458
B          6.43201        0.94142       -1.32641
B          6.45423       -0.61089       -1.35432
B         -1.75799        0.83279        0.79046
B          1.77497       -1.16608        2.95044
B         -0.27231       -1.69477        0.79493
B         -5.92624       -1.67870       -0.76509
B         -6.14650        0.03242       -0.79719
B         -5.97357        1.76490       -0.77382
B          0.31338       -0.95954        0.55705
