45
isomer_2101.log	Energy: -113466.9076766
B          2.39887       -1.61789        0.08885
B          2.35362       -3.32925       -0.21462
B          0.98484       -4.08705       -0.16578
B         -0.46592       -3.30498        0.70022
B          0.96458       -0.78727        0.31923
B         -1.82596       -0.75973        1.14008
B         -1.84897       -3.91649       -0.16427
B          3.85554       -0.92805        0.05128
B         -1.64870       -2.16766       -0.03273
B          3.71378       -2.46550       -0.46329
B         -0.47347       -4.52888       -0.35065
B         -3.18039       -3.06719       -0.22942
B         -3.22818       -1.59116        0.42932
B         -4.53749       -0.59420       -0.10916
B         -0.15924        1.70516        0.91634
B         -1.46651        2.45921        0.10272
B         -2.92299        1.72746       -0.05910
B         -4.49001        1.07594        0.14059
B         -4.23260        2.62128       -0.67781
B         -2.79759        3.34780       -0.41456
B         -1.36884        4.09798       -0.40645
B         -0.08676        3.32674        0.53604
B          0.07985        4.57915       -0.44476
B          2.79850        3.18096        0.07898
B          1.47165        4.00802       -0.09477
B          2.75698        1.51886        0.71833
B          4.16815        2.33954        0.06411
B          4.03517        0.71091        0.21790
B          1.39038        2.42954        0.48585
B          1.03980       -2.54296        0.41497
B         -3.20053        0.15282        0.67021
B          1.31375        0.77146        0.89714
B         -4.54706       -2.27326       -0.48318
B          5.18645       -1.78980       -0.67830
B          5.38500       -0.21143       -0.09358
B          5.44788        1.52292       -0.37464
B          6.45726        0.53424       -1.06302
B          6.42417       -0.96331       -1.09333
B         -1.50678        0.69199        0.15421
B         -0.68097       -0.79458       -0.33161
B         -0.38493       -1.71865        1.24188
B         -5.72795       -1.33210       -0.83010
B         -5.79230        0.21200       -0.87860
B         -5.41493        1.73279       -0.98122
B         -0.23715        0.02462        1.26667
