45
isomer_2102.log	Energy: -113473.5819558
B         -2.42020        1.74186        0.30776
B         -2.24575        3.39215       -0.31210
B         -0.83882        4.09413       -0.43189
B          0.55852        3.30452        0.34837
B         -1.04247        0.80987        0.48306
B          1.88613        0.76455        0.88485
B          2.02913        3.98325       -0.22627
B         -3.90312        1.15995        0.35076
B          1.96626        2.40085        0.54821
B         -3.67976        2.61026       -0.43785
B          0.64961        4.57352       -0.58932
B          3.39820        3.13960       -0.04862
B          3.39118        1.56038        0.50980
B          4.77550        0.55097        0.31360
B          0.18867       -1.74810        1.24115
B          1.53496       -2.48225        0.32140
B          3.00538       -1.80125        0.20609
B          4.40410       -0.99745       -0.24447
B          4.16442       -2.56096       -0.87621
B          2.66471       -3.24550       -0.60864
B          1.17084       -3.71961       -0.79434
B         -0.05792       -3.15408        0.34351
B         -0.37806       -3.98266       -1.00448
B         -2.82020       -3.09076        0.40239
B         -1.65751       -3.94184       -0.16526
B         -2.63549       -1.41168        0.53783
B         -4.14433       -2.11893        0.16641
B         -4.02926       -0.51243        0.47801
B         -1.37819       -2.31012       -0.55571
B         -0.96127        2.49459        0.12150
B          3.35054       -0.20100        0.82720
B         -1.07070       -0.85559        0.28923
B          4.68481        2.25047       -0.30039
B         -5.11519        2.01244       -0.66006
B         -5.30578        0.39490       -0.14288
B         -5.36624       -1.30529       -0.34756
B         -6.45879       -0.32311       -0.98810
B         -6.37662        1.16185       -1.07140
B          1.75410       -0.93483        1.07663
B         -1.38668       -2.43575        1.25194
B          0.44313        1.66243        0.77410
B          5.70187        1.21222       -0.82024
B          5.81050       -0.29105       -0.93850
B          5.43249       -1.81284       -1.16442
B          0.30730       -0.03767        0.94495
