45
isomer_2104.log	Energy: -113020.0484241
B         -2.55958        1.73560        0.42661
B         -2.53309        3.36974        0.03945
B         -1.13013        4.18574       -0.20329
B          0.30642        3.36215        0.33154
B         -1.10397        0.86522        0.73166
B          1.72631        0.85518        0.79654
B          1.68469        4.12946       -0.35922
B         -4.01360        0.89362        0.34860
B          1.67920        2.46953        0.23175
B         -3.91722        2.55610       -0.09596
B          0.26635        4.76931       -0.48214
B          3.10650        3.27519       -0.37963
B          3.12481        1.66222        0.18521
B          4.57625        0.81735       -0.29924
B          0.27032       -1.65525        0.83908
B          1.64700       -2.41792        0.23301
B          3.09679       -1.62080        0.20132
B          4.54814       -0.80369       -0.28432
B          4.39019       -2.38215       -0.53472
B          3.04885       -3.25216       -0.34583
B          1.62682       -4.09387       -0.32313
B          0.24763       -3.31109        0.33725
B          0.20819       -4.72544       -0.45189
B         -2.61169       -3.29103        0.03120
B         -1.20339       -4.13977       -0.19412
B         -2.65973       -1.62803        0.38357
B         -4.03612       -2.43215       -0.11681
B         -4.05599       -0.78180        0.34389
B         -1.19092       -2.51829        0.56349
B         -1.13842        2.56392        0.57577
B          3.19212        0.11504        0.58504
B         -1.13646       -0.66911        0.71105
B          4.44480        2.40378       -0.56777
B         -5.24832        1.78419       -0.59889
B         -5.27247        0.15170       -0.36353
B         -5.30793       -1.63304       -0.58658
B         -6.43147       -0.67251       -1.17098
B         -6.41718        0.84529       -1.18436
B          1.71699       -0.76826        0.79043
B         -1.28274       -1.33936       -0.44531
B          0.30151        1.75425        0.86813
B          5.87289        1.60149       -0.75595
B          6.03014       -0.04255       -0.79494
B          5.83267       -1.70901       -0.78718
B          0.30481       -0.27879        1.77119
