45
isomer_2106.log	Energy: -113396.4279033
B          2.89443       -1.66819        0.39358
B          2.79115       -3.16621       -0.34680
B          1.38621       -3.90690       -0.45158
B         -0.03111       -3.22970        0.38551
B          1.68770       -0.71720        0.92827
B         -1.69493       -0.83039        0.83068
B         -1.41904       -4.00847       -0.39847
B          4.13848       -0.76450        0.12889
B         -1.50626       -2.41884        0.43763
B          4.17716       -2.30353       -0.45070
B         -0.01521       -4.45663       -0.68604
B         -2.82726       -3.33057       -0.27450
B         -3.03273       -1.80410        0.28884
B         -4.57385       -1.03447        0.00795
B         -0.52992        1.81498        1.06137
B         -1.92205        2.46430        0.33048
B         -3.30830        1.62061        0.23413
B         -4.50824        0.59720       -0.38268
B         -4.56510        2.24785       -0.81315
B         -3.24098        3.14588       -0.41429
B         -1.89239        4.01647       -0.46000
B         -0.48116        3.32543        0.40740
B         -0.48322        4.54483       -0.64695
B          2.26051        3.19409       -0.24010
B          0.92596        3.96859       -0.37424
B          2.38105        1.52410        0.58161
B          3.58847        2.46722       -0.29892
B          3.89019        0.95764        0.19480
B          0.98851        2.44066        0.53184
B          1.44224       -2.37667        0.31730
B         -3.33243       -0.09408        0.62162
B          1.04915        0.85880        1.18043
B         -4.19920       -2.62394       -0.64998
B          5.49013       -1.38638       -0.76280
B          5.32143        0.25787       -0.26314
B          5.06126        1.87106       -0.66257
B          6.25753        1.13594       -1.29132
B          6.44982       -0.34284       -1.32099
B         -1.95270        0.82412        1.07319
B          0.68237       -0.59268        2.11299
B         -0.03904       -1.66351        1.01723
B         -5.34739       -1.77092       -1.18160
B         -5.72450       -0.27615       -1.20984
B         -5.65477        1.28640       -1.24444
B         -0.58196        0.20284        1.75936
