45
isomer_2107.log	Energy: -113675.8866788
B         -2.56274       -1.73086       -0.53004
B         -2.51271       -3.30402        0.03731
B         -1.15580       -4.14936        0.10870
B          0.26964       -3.40306       -0.53958
B         -1.17005       -0.85088       -1.06912
B          1.71783       -0.84329       -0.78828
B          1.64270       -4.16969        0.25781
B         -3.98381       -0.84593       -0.22431
B          1.72494       -2.55119       -0.43102
B         -3.86884       -2.48548        0.27653
B          0.22074       -4.74826        0.35230
B          3.00907       -3.34004        0.27841
B          3.12925       -1.73278       -0.22124
B          4.54674       -0.89334        0.14608
B          0.36872        1.82530       -1.11720
B          1.80141        2.53272       -0.48854
B          3.17288        1.68084       -0.25978
B          4.53187        0.79855        0.23762
B          4.40606        2.44495        0.74987
B          3.09103        3.28090        0.26649
B          1.74715        4.14436        0.24634
B          0.35027        3.38477       -0.51437
B          0.34063        4.74583        0.35200
B         -2.42817        3.33455        0.03913
B         -1.04845        4.15719        0.12244
B         -2.50967        1.75963       -0.48945
B         -3.81023        2.53686        0.29204
B         -3.95645        0.90985       -0.21567
B         -1.11978        2.58976       -0.76596
B         -1.18535       -2.57768       -0.78865
B          3.29348       -0.01569       -0.60892
B         -1.13023        0.84862       -1.04326
B          4.32671       -2.49909        0.77055
B         -5.10352       -1.65235        0.84642
B         -5.19519        0.04380        0.52347
B         -5.06069        1.73815        0.86479
B         -6.08376        0.81333        1.61372
B         -6.10356       -0.70743        1.60703
B          1.78595        0.83058       -0.91103
B         -2.60964        0.01576       -0.74599
B          0.31311       -1.83058       -1.08740
B          5.37358       -1.56906        1.33844
B          5.61962       -0.03272        1.30510
B          5.47234        1.51917        1.30221
B          0.34289       -0.00272       -1.09499
