45
isomer_2108.log	Energy: -112073.5607658
B          2.61288       -1.66099        0.31779
B          2.60796       -3.29269       -0.08859
B          1.20274       -4.12387       -0.33616
B         -0.25357       -3.30587        0.23625
B          1.15221       -0.77945        0.64680
B         -1.72180       -0.82086        0.74924
B         -1.64527       -4.08524       -0.45663
B          4.06794       -0.78049        0.24940
B         -1.64034       -2.41565        0.16236
B          4.01154       -2.46511       -0.23422
B         -0.21896       -4.74130       -0.61544
B         -3.08024       -3.24337       -0.44864
B         -3.10900       -1.63136        0.14402
B         -4.57463       -0.81603       -0.33058
B         -0.29626        1.73920        0.84814
B         -1.68512        2.43923        0.24168
B         -3.13907        1.62901        0.19729
B         -4.58956        0.80273       -0.30413
B         -4.43785        2.36565       -0.52488
B         -3.14022        3.25977       -0.34239
B         -1.72102        4.12777       -0.32245
B         -0.31498        3.35198        0.34503
B         -0.30710        4.81486       -0.45931
B          2.54621        3.40218        0.02079
B          1.12583        4.21495       -0.19993
B          2.58134        1.75845        0.37365
B          3.96477        2.60582       -0.15137
B          4.05237        0.90763        0.27698
B          1.14469        2.56661        0.55828
B          1.19144       -2.50111        0.47548
B         -3.20401       -0.10839        0.56610
B          1.13728        0.83985        0.67325
B         -4.39419       -2.36785       -0.60221
B          5.32522       -1.63996       -0.73294
B          5.30873       -0.01291       -0.47239
B          5.29329        1.82177       -0.67638
B          6.46366        0.88780       -1.30106
B          6.47798       -0.66466       -1.32642
B         -1.73698        0.82488        0.77612
B          0.89662       -1.12356        3.15252
B         -0.26445       -1.71032        0.79178
B         -5.91057       -1.66751       -0.79575
B         -6.12181        0.04467       -0.83159
B         -5.94003        1.77628       -0.81011
B          0.28234       -0.22255        0.56058
