45
isomer_2109.log	Energy: -113578.4088602
B         -2.75141       -0.49604        0.08317
B         -2.89927       -2.25283        0.56351
B         -1.66974       -3.13245        1.05524
B         -0.30399       -2.75268       -0.04928
B         -0.96762       -0.10057        0.20286
B          1.62554       -0.75383       -0.94134
B          1.14079       -3.61724        0.72204
B         -4.34670       -0.62868       -1.13281
B          1.36571       -2.24297       -0.23681
B         -4.27331       -1.47364        0.35732
B         -0.29158       -3.66421        1.30691
B          2.57517       -3.26854        0.28446
B          2.94951       -1.81232       -0.53716
B          4.53178       -1.25451       -0.50547
B          0.72710        1.93713       -1.26678
B          2.22804        2.53911       -0.71325
B          3.49247        1.46036       -0.52148
B          4.81953        0.42501       -0.36363
B          4.96839        2.08736        0.19294
B          3.65649        2.99760        0.07491
B          2.28511        3.47982        0.74841
B          0.72448        2.93544        0.05586
B          0.93827        3.68188        1.44295
B         -1.86805        2.61789        0.77606
B         -0.46604        3.14453        1.20847
B         -2.18502        1.15877        0.18809
B         -3.38700        2.37682        0.28717
B         -3.81960        0.85393       -0.27276
B         -0.58351        1.73754       -0.10309
B         -1.64540       -1.82593       -0.79732
B          3.36673       -0.15987       -1.08765
B          0.36310        0.41378       -0.77624
B          4.11509       -2.67224        0.35776
B         -5.75405       -0.89009        0.12035
B         -5.42334        0.56328       -0.72175
B         -4.91146        2.06676        0.11634
B         -6.32404        1.43608        0.31888
B         -6.86960        0.08860        0.08816
B          2.02570        0.87251       -1.21775
B         -3.22859       -1.67956       -1.16570
B         -0.03358       -1.27953       -0.82894
B          5.37772       -1.92144        0.70674
B          5.94393       -0.50131        0.53585
B          6.03452        1.02298        0.49872
B         -1.25228       -1.51670        0.94605
