45
isomer_0211.log	Energy: -111721.1665441
B         -2.59690        1.77968        0.39558
B         -2.57622        3.42199        0.03505
B         -1.16304        4.24619       -0.18945
B          0.28528        3.39848        0.35953
B         -1.14483        0.87523        0.69947
B          1.72944        0.88603        0.80242
B          1.68448        4.18349       -0.31155
B         -4.06038        0.91551        0.30287
B          1.66341        2.49734        0.26045
B         -3.98771        2.61239       -0.13340
B          0.26457        4.85746       -0.45163
B          3.11126        3.32792       -0.32743
B          3.12444        1.69975        0.21985
B          4.58216        0.88393       -0.27770
B          0.27928       -1.66193        0.82990
B          1.66135       -2.35805        0.20379
B          3.12305       -1.56097        0.18180
B          4.58147       -0.73500       -0.29660
B          4.41471       -2.28960       -0.56099
B          3.10850       -3.17592       -0.40334
B          1.68100       -4.03041       -0.40741
B          0.28246       -3.26009        0.28183
B          0.26052       -4.69973       -0.56316
B         -2.57906       -3.27360       -0.04309
B         -1.16657       -4.09353       -0.28678
B         -2.59835       -1.64013        0.35567
B         -3.98986       -2.45909       -0.19258
B         -4.06110       -0.77279        0.28317
B         -1.16958       -2.46696        0.51729
B         -1.16743        2.60130        0.57644
B          3.20473        0.16471        0.59909
B         -1.14552       -0.74425        0.68057
B          4.41672        2.44442       -0.50574
B         -5.30926        1.81423       -0.65476
B         -5.30848        0.18045       -0.43987
B         -5.31072       -1.64787       -0.69516
B         -6.47199       -0.68553       -1.29319
B         -6.47134        0.86709       -1.27507
B          1.72875       -0.75989        0.78321
B         -1.23740       -1.24616        2.40548
B          0.28074        1.78796        0.87016
B          5.92628        1.73518       -0.71913
B          6.12100        0.02271       -0.80295
B          5.92252       -1.70698       -0.82992
B          0.07763       -1.93496        0.01727
