45
isomer_2112.log	Energy: -113075.8129799
B         -2.57118        1.62191        0.55622
B         -2.48902        3.27481        0.11885
B         -1.11926        4.08329       -0.07650
B          0.31596        3.33024        0.44541
B         -1.18219        0.83243        0.91685
B          1.87564        0.86713        0.97898
B          1.66988        4.08984       -0.34064
B         -4.02429        0.85731        0.31876
B          1.73648        2.46889        0.34647
B         -3.85761        2.49051       -0.05205
B          0.24444        4.66838       -0.43902
B          3.04279        3.26042       -0.40919
B          3.17777        1.70315        0.19878
B          4.53986        0.88667       -0.34215
B          0.35093       -1.74380        1.20293
B          1.78915       -2.51140        0.35403
B          3.18474       -1.67786        0.21378
B          4.50135       -0.80093       -0.36449
B          4.42462       -2.40990       -0.80693
B          3.01430       -3.18479       -0.50443
B          1.52020       -3.96643       -0.49922
B          0.22419       -3.26501        0.38315
B          0.10510       -4.49404       -0.62091
B         -2.66394       -3.16282       -0.15018
B         -1.26594       -3.82601       -0.29296
B         -2.97405       -1.69178        0.27915
B         -4.20428       -2.46943       -0.39975
B         -4.16939       -0.82281        0.22193
B         -1.32292       -2.32430        0.60332
B         -1.13005        2.48904        0.71782
B          3.32537        0.06683        0.59595
B         -0.72926       -0.67104        1.19818
B          4.43670        2.52135       -0.74725
B         -5.17358        1.80462       -0.64850
B         -5.26818        0.14587       -0.49830
B         -5.41513       -1.56725       -0.86376
B         -6.39572       -0.53379       -1.44371
B         -6.30990        0.98039       -1.36576
B          1.96027       -0.83496        1.12719
B         -2.07226       -0.43182        0.55319
B          0.37211        1.68847        1.00329
B          5.66463        1.64296       -1.13546
B          5.80412        0.07376       -1.16130
B          5.62107       -1.51697       -1.20405
B          1.43647       -1.94112        2.03230
