45
isomer_2115.log	Energy: -113490.4518802
B         -2.54297       -1.53125       -0.38936
B         -2.47652       -3.19090        0.31123
B         -1.21831       -4.03593        0.42066
B          0.28048       -3.39513       -0.55468
B         -1.06395       -0.91346       -0.63903
B          1.82479       -0.83605       -0.77815
B          1.65371       -4.02279        0.37367
B         -3.97832       -0.85119       -0.31396
B          1.77144       -2.53138       -0.45279
B         -3.82425       -2.31295        0.46095
B          0.23377       -4.46475        0.61212
B          3.06738       -3.30287        0.24810
B          3.20532       -1.72247       -0.33108
B          4.70952       -0.87643       -0.18928
B          0.28473        1.67314       -0.90663
B          1.81586        2.46234       -0.38617
B          3.12558        1.65919       -0.06612
B          4.61939        0.82617        0.11952
B          4.51117        2.49917        0.64339
B          3.12145        3.28936        0.35475
B          1.68133        4.00329        0.51369
B          0.31566        3.20574       -0.15130
B          0.28079        4.50625        0.74826
B         -2.54805        3.23553       -0.04568
B         -1.14340        3.93923        0.35751
B         -2.69620        1.70505       -0.92794
B         -3.97284        2.44707       -0.03321
B         -3.97902        0.83668       -0.34302
B         -1.23239        2.39027       -0.28614
B         -1.16778       -2.63307       -0.43970
B          3.33524        0.00675       -0.66693
B         -2.40440        0.15743       -0.62274
B          4.45573       -2.45887        0.53096
B         -5.26718       -1.67206        0.66919
B         -5.27753       -0.04232        0.24904
B         -5.15742        1.62967        0.65104
B         -6.22011        0.68298        1.32754
B         -6.40097       -0.78307        1.18201
B          1.76278        0.84604       -0.74122
B         -1.22083        1.10674       -1.41819
B          0.32683       -1.70363       -0.96114
B          5.59238       -1.52244        0.97396
B          5.87735        0.01167        0.91914
B          5.71134        1.58473        0.97901
B          0.22843        0.09850       -1.00125
