45
isomer_2116.log	Energy: -110842.5512845
B          2.63809        1.77952       -0.43343
B          2.62384        3.42200       -0.07338
B          1.21418        4.24995        0.15932
B         -0.23961        3.40582       -0.38064
B          1.18187        0.87874       -0.72826
B         -1.69293        0.89698       -0.81394
B         -1.63270        4.19470        0.29856
B          4.09985        0.91157       -0.34922
B         -1.61945        2.50830       -0.27295
B          4.03421        2.60879        0.08687
B         -0.21023        4.86502        0.42985
B         -3.06158        3.34285        0.32333
B         -3.08228        1.71453       -0.22328
B         -4.53909        0.90267        0.28332
B         -0.24958       -1.65475       -0.84922
B         -1.62967       -2.34707       -0.21456
B         -3.08914       -1.54618       -0.18406
B         -4.54250       -0.71625        0.30279
B         -4.37819       -2.27118        0.56673
B         -3.07527       -3.16095        0.40155
B         -1.64999       -4.01915        0.39735
B         -0.25362       -3.25271       -0.30056
B         -0.23034       -4.69211        0.54480
B          2.60975       -3.27355        0.00715
B          1.19663       -4.08972        0.25962
B          2.63090       -1.64027       -0.39230
B          4.02354       -2.46266        0.14787
B          4.09630       -0.77672       -0.32891
B          1.19903       -2.46344       -0.54503
B          1.20970        2.60479       -0.60599
B         -3.16884        0.17957       -0.60148
B          1.17846       -0.74073       -0.70878
B         -4.36823        2.46280        0.50980
B          5.35679        1.80738        0.60056
B          5.35048        0.17353        0.38627
B          5.34951       -1.65470        0.64220
B          6.51685       -0.69517        1.23289
B          6.52011        0.85743        1.21422
B         -1.69640       -0.74892       -0.79414
B          0.49816       -2.88721       -1.00330
B         -0.24232        1.79512       -0.89071
B         -5.87832        1.75756        0.73251
B         -6.07698        0.04564        0.81812
B         -5.88284       -1.68456        0.84452
B         -1.03814       -0.58724       -0.49608
