45
isomer_2117.log	Energy: -113323.0853382
B         -2.64400       -1.50608       -0.50827
B         -2.68670       -3.14137       -0.14741
B         -1.33625       -4.03182       -0.48637
B          0.33143       -3.58823       -0.84665
B         -1.30684       -0.71242       -1.06217
B          1.62332       -0.88383       -0.86959
B          1.22175       -4.06281        0.54479
B         -3.87722       -0.56389        0.01267
B          1.45984       -2.47323       -0.21642
B         -3.83730       -2.23252        0.34010
B         -0.15115       -4.64935        0.31665
B          2.57435       -3.19946        0.78223
B          2.85221       -1.72348        0.12091
B          4.25007       -0.86744        0.60403
B          0.35869        1.75978       -1.17970
B          1.81811        2.47644       -0.69890
B          3.16505        1.62852       -0.27547
B          4.53102        0.72336        0.15363
B          4.39794        2.42440        0.61624
B          3.12553        3.25822        0.04994
B          1.81132        4.14858       -0.05485
B          0.39369        3.38278       -0.76880
B          0.43459        4.80460       -0.02047
B         -2.39305        3.45656       -0.22192
B         -0.97537        4.24825       -0.21159
B         -2.52161        1.80122       -0.61015
B         -3.68843        2.69645        0.27083
B         -3.93248        1.07475       -0.11581
B         -1.12253        2.59114       -0.83299
B         -1.55254       -2.45676       -1.29721
B          3.19418       -0.09104       -0.48199
B         -1.20033        0.86437       -1.09397
B          3.93457       -2.39506        1.30043
B         -4.87026       -1.30819        1.26249
B         -4.46637        0.33444        1.26002
B         -4.87381        1.99380        1.05048
B         -5.77144        1.11791        1.91457
B         -5.69937       -0.39348        2.10092
B          1.71467        0.76762       -0.85496
B          0.20215       -0.06028       -1.10737
B          0.19920       -1.84325       -1.33173
B          5.08852       -1.54133        1.78482
B          5.43226       -0.04464        1.55762
B          5.33665        1.47915        1.32769
B         -0.54407       -3.26237       -2.07631
