45
isomer_2119.log	Energy: -113441.9648962
B         -2.45185        1.82273        0.46988
B         -2.37517        3.45113       -0.11000
B         -0.98134        4.21710       -0.27870
B          0.43990        3.42770        0.33848
B         -1.14791        0.95949        1.03564
B          1.77538        0.86195        0.72545
B          1.83250        4.13182       -0.42153
B         -3.73014        1.01812       -0.01243
B          1.84740        2.55191        0.46148
B         -3.79878        2.69085       -0.15685
B          0.45296        4.75225       -0.56208
B          3.19267        3.24777       -0.34917
B          3.21453        1.67992        0.16692
B          4.64458        0.72886        0.04467
B          0.27811       -1.65398        1.30498
B          1.55345       -2.48820        0.56800
B          3.02553       -1.74326        0.31702
B          4.41121       -0.90597       -0.21585
B          4.26521       -2.56254       -0.59906
B          2.83028       -3.27195       -0.16876
B          1.38214       -3.97983       -0.24277
B         -0.07500       -3.24209        0.39385
B          0.05183       -4.50042       -0.66157
B         -2.66024       -3.19438       -0.79599
B         -1.38315       -4.10490       -0.81033
B         -2.47437       -1.74131        0.39455
B         -3.73763       -2.13646       -0.65175
B         -3.68503       -0.64619       -0.00664
B         -1.81867       -3.42162        0.59218
B         -1.08949        2.68586        0.57214
B          3.25589       -0.02691        0.65382
B         -1.28452       -0.63246        1.02421
B          4.49692        2.36403       -0.69084
B         -5.12827        1.93479       -0.50958
B         -5.17604        0.23644       -0.08257
B         -5.16313       -1.31701       -0.68604
B         -6.36770       -0.47253       -1.00581
B         -6.24408        1.00908       -1.06564
B          1.68505       -0.78833        1.00780
B          0.24973        0.09490        0.96659
B          0.39908        1.88260        0.97299
B          5.51790        1.33018       -1.14977
B          5.69408       -0.21085       -1.10971
B          5.44565       -1.75385       -1.08743
B         -1.16949       -2.28440        1.42021
