45
isomer_0212.log	Energy: -112079.2429337
B         -2.64955       -1.69723       -0.39774
B         -2.58770       -3.35100       -0.00458
B         -1.16882       -4.17979        0.22433
B          0.30431       -3.35764       -0.32686
B         -1.25157       -0.76700       -0.70954
B          1.76223       -0.82304       -0.79329
B          1.70274       -4.12615        0.36405
B         -4.09343       -0.84347       -0.31580
B          1.70950       -2.46243       -0.22718
B         -4.01167       -2.53030        0.14311
B          0.26746       -4.77606        0.49892
B          3.13610       -3.27629        0.37690
B          3.15031       -1.65036       -0.19053
B          4.59896       -0.80913        0.30364
B          0.28437        1.75755       -0.86117
B          1.67043        2.44943       -0.22258
B          3.12767        1.64932       -0.18484
B          4.58219        0.82223        0.30880
B          4.41464        2.38842        0.56859
B          3.09393        3.27008        0.38809
B          1.66108        4.11453        0.37499
B          0.26065        3.35281       -0.32014
B          0.23122        4.76766        0.50968
B         -2.62059        3.35463       -0.00778
B         -1.20170        4.17380        0.23109
B         -2.66678        1.71312       -0.39629
B         -4.04177        2.52963        0.14716
B         -4.10370        0.85192       -0.31282
B         -1.22913        2.55308       -0.56407
B         -1.21141       -2.53770       -0.56237
B          3.22528       -0.08712       -0.59045
B         -1.25678        0.79445       -0.70708
B          4.45149       -2.38230        0.55817
B         -5.32741       -1.73583        0.65580
B         -5.33526       -0.09751        0.42217
B         -5.34368        1.71848        0.65805
B         -6.48527        0.75596        1.26596
B         -6.48441       -0.78178        1.26808
B          1.75077        0.84061       -0.79078
B         -0.34458        1.35689       -1.34872
B          0.37241       -1.78881       -0.84793
B          5.92227       -1.63091        0.76238
B          6.09838        0.06569        0.82573
B          5.89361        1.77075        0.83890
B         -0.25679       -1.35917       -1.01206
