45
isomer_2123.log	Energy: -113212.1011590
B          2.43384        1.65728       -0.53210
B          2.40641        3.29764       -0.09720
B          1.05225        4.08669        0.12118
B         -0.35551        3.30238       -0.39387
B          1.12780        0.81772       -0.89917
B         -1.73155        0.81791       -0.87924
B         -1.71277        4.05371        0.32726
B          3.75638        0.86733       -0.40953
B         -1.70923        2.41509       -0.29844
B          3.67494        2.49914        0.03267
B         -0.33295        4.63313        0.43111
B         -3.08289        3.20520        0.34240
B         -3.12224        1.62046       -0.22690
B         -4.53081        0.76499        0.26242
B         -0.32962       -1.66684       -0.99329
B         -1.68325       -2.39077       -0.33001
B         -3.09919       -1.62533       -0.25935
B         -4.50241       -0.81572        0.24070
B         -4.41005       -2.38392        0.53883
B         -3.03242       -3.20816        0.29866
B         -1.65260       -4.02957        0.28476
B         -0.30338       -3.26187       -0.42798
B         -0.27154       -4.59420        0.38872
B          2.45575       -3.23213       -0.10534
B          1.13345       -4.02717        0.09184
B          2.46191       -1.57767       -0.54315
B          3.73723       -2.38273        0.05053
B          3.78038       -0.79628       -0.40121
B          1.09882       -2.46098       -0.68839
B          1.05942        2.51115       -0.66346
B         -3.20875        0.05729       -0.62838
B          1.13183       -0.77977       -0.94259
B         -4.46709        2.35970        0.57559
B          4.95865        1.70575        0.51744
B          4.94535        0.10651        0.28779
B          4.98373       -1.56852        0.52302
B          6.00265       -0.69910        1.11218
B          6.02806        0.79881        1.12988
B         -1.72657       -0.82061       -0.89184
B          2.88896       -0.61361        1.48623
B         -0.34921        1.70547       -0.95930
B         -5.73625        1.48664        0.77075
B         -5.88699       -0.06972        0.79992
B         -5.68506       -1.59891        0.79044
B          1.80452       -0.16638        0.16641
