45
isomer_2124.log	Energy: -112623.5170211
B         -2.61605       -1.59777       -0.48872
B         -2.62398       -3.23878       -0.12182
B         -1.22569       -4.08426        0.11642
B          0.23988       -3.26163       -0.42489
B         -1.14765       -0.71751       -0.78512
B          1.72678       -0.77400       -0.86645
B          1.62147       -4.06596        0.25965
B         -4.06635       -0.71029       -0.41028
B          1.63128       -2.38194       -0.31888
B         -4.02373       -2.40639        0.03295
B          0.19010       -4.71692        0.39162
B          3.06142       -3.23292        0.28301
B          3.10437       -1.60732       -0.27033
B          4.57104       -0.81263        0.23505
B          0.31726        1.79637       -0.91448
B          1.70545        2.47307       -0.28065
B          3.15418        1.65315       -0.24466
B          4.59577        0.80617        0.24780
B          4.45161        2.36423        0.50503
B          3.16077        3.27040        0.33421
B          1.74694        4.14729        0.32432
B          0.34159        3.39642       -0.37247
B          0.33609        4.83951        0.46686
B         -2.52170        3.45628       -0.06910
B         -1.09830        4.25480        0.18207
B         -2.56381        1.82177       -0.46179
B         -3.94626        2.66469        0.07288
B         -4.04056        0.97788       -0.39699
B         -1.12100        2.62535       -0.61581
B         -1.19842       -2.44252       -0.65572
B          3.21171       -0.07523       -0.65478
B         -1.12292        0.90185       -0.77237
B          4.37930       -2.36941        0.46776
B         -5.33636       -1.58547        0.54134
B         -5.30819        0.04725        0.32027
B         -5.28347        1.87635        0.56860
B         -6.46421        0.93478        1.16154
B         -6.48793       -0.61772        1.14931
B          1.75192        0.87179       -0.85349
B         -0.88269       -2.82994        0.76449
B          0.26456       -1.65325       -0.94164
B          5.89823       -1.68321        0.68978
B          6.11933        0.02628        0.76857
B          5.94799        1.75899        0.78748
B         -0.44976       -0.09962        0.24940
