45
isomer_2125.log	Energy: -113441.9604923
B         -2.45235        1.82244        0.46984
B         -2.37595        3.45066       -0.10948
B         -0.98191        4.21736       -0.27727
B          0.43909        3.42846        0.34075
B         -1.14821        0.95865        1.03586
B          1.77434        0.86223        0.72217
B          1.83048        4.13223       -0.42420
B         -3.73084        1.01713       -0.01226
B          1.84581        2.55156        0.45601
B         -3.79934        2.69000       -0.15732
B          0.45140        4.75304       -0.56063
B          3.19095        3.24746       -0.35543
B          3.21184        1.67925        0.15692
B          4.64500        0.73031        0.05011
B          0.27809       -1.65391        1.30312
B          1.55367       -2.48724        0.56522
B          3.02539       -1.74227        0.31501
B          4.41305       -0.90502       -0.21298
B          4.26807       -2.56185       -0.59565
B          2.83138       -3.27133       -0.16995
B          1.38273       -3.97934       -0.24493
B         -0.07437       -3.24214        0.39270
B          0.05216       -4.49988       -0.66326
B         -2.66027       -3.19448       -0.79682
B         -1.38332       -4.10521       -0.81225
B         -2.47409       -1.74261        0.39383
B         -3.73762       -2.13630       -0.65211
B         -3.68373       -0.64584       -0.00632
B         -1.81780       -3.42285        0.59094
B         -1.09022        2.68605        0.57346
B          3.25452       -0.02598        0.65212
B         -1.28511       -0.63328        1.02354
B          4.49826        2.36459       -0.69096
B         -5.12920        1.93420       -0.50857
B         -5.17697        0.23591       -0.08007
B         -5.16367       -1.31735       -0.68365
B         -6.36924       -0.47360       -1.00208
B         -6.24522        1.00819       -1.06311
B          1.68376       -0.78778        1.00555
B         -1.16917       -2.28519        1.41944
B          0.39850        1.88200        0.97185
B          5.52173        1.33039       -1.14268
B          5.69917       -0.21019       -1.10114
B          5.45029       -1.75318       -1.08027
B          0.24892        0.09472        0.96496
