45
isomer_2126.log	Energy: -113272.4384899
B         -2.64062       -1.66296       -0.78285
B         -2.65146       -3.28843        0.21645
B         -1.36355       -4.16020        0.32458
B          0.07735       -3.54498       -0.41569
B         -0.75274       -0.67425       -1.29177
B          1.34503       -0.84460       -0.77718
B          1.41601       -4.21059        0.38863
B         -3.78948       -0.71773       -0.11743
B          1.47187       -2.59317       -0.59241
B         -3.75339       -2.27528        0.40713
B          0.05169       -4.78767        0.59474
B          2.74604       -3.36239        0.29346
B          2.83580       -1.79357       -0.16439
B          4.25733       -0.96508        0.27190
B          0.41684        2.00670       -1.15534
B          1.90384        2.60369       -0.60375
B          3.14387        1.64968       -0.18341
B          4.44724        0.65731        0.17183
B          4.45115        2.33956        0.68899
B          3.22075        3.27288        0.20262
B          1.88740        4.21642        0.22769
B          0.48265        3.51747       -0.46997
B          0.51467        4.86226        0.36883
B         -2.31331        3.52637        0.02812
B         -0.93703        4.28830        0.12530
B         -2.42914        1.84274       -0.60715
B         -3.61227        2.68210        0.27198
B         -3.72588        1.06603       -0.11435
B         -1.04716        2.76911       -0.73217
B         -1.44732       -2.90696       -0.85109
B          3.06415       -0.10375       -0.49839
B         -1.18438        1.04260       -1.13136
B          4.06851       -2.60345        0.78404
B         -4.96358       -1.37003        0.97712
B         -4.95498        0.24119        0.55762
B         -4.87706        1.89456        0.90051
B         -5.88946        1.04043        1.66934
B         -5.92499       -0.43880        1.71750
B          1.64002        0.86783       -0.70424
B         -1.58589       -1.69511       -1.96155
B          0.11202       -2.10327       -1.33409
B          5.20092       -1.75373        1.32291
B          5.51266       -0.24002        1.28472
B          5.43009        1.31135        1.26184
B          0.14581        0.39747       -0.56927
