45
isomer_2127.log	Energy: -113416.4025701
B          2.30025        1.99660       -0.37401
B          2.10888        3.55925        0.25146
B          0.66843        4.30777        0.20755
B         -0.65504        3.45409       -0.51381
B          1.01737        1.11380       -1.09525
B         -1.73505        0.73347       -0.82324
B         -2.12579        4.08611        0.09636
B          3.67549        1.18910        0.08117
B         -1.98459        2.44156       -0.67064
B          3.52020        2.83765        0.51784
B         -0.79800        4.80178        0.33310
B         -3.39875        3.11072       -0.00457
B         -3.28132        1.49281       -0.32099
B         -4.62149        0.51711        0.04290
B         -0.14631       -1.79810       -1.04222
B         -1.40165       -2.52189       -0.23755
B         -2.87932       -1.83715       -0.00018
B         -4.39583       -1.10573        0.26925
B         -4.03431       -2.61451        1.00352
B         -2.65786       -3.34277        0.58106
B         -1.26660       -4.15284        0.51766
B          0.00011       -3.41991       -0.34854
B          0.11596       -4.74054        0.55283
B          2.71752       -3.17811        0.01302
B          1.48921       -4.13486        0.16037
B          2.53785       -1.53852       -0.82907
B          3.86413       -2.19413        0.16040
B          3.78687       -0.58409       -0.16416
B          1.47993       -3.02767       -1.09975
B          0.88777        2.75908       -0.59421
B         -3.14209       -0.21142       -0.52861
B          1.02355       -0.48534       -1.33537
B         -4.65802        2.21265        0.44081
B          4.78284        2.04229        1.06227
B          5.04574        0.38454        0.53471
B          5.11141       -1.31646        0.69867
B          6.08448       -0.39844        1.48828
B          5.86113        1.07396        1.73476
B         -1.50908       -0.89140       -0.75080
B          2.38035        0.27359       -0.57143
B         -0.50897        1.80075       -1.04644
B         -5.66862        1.22576        1.00736
B         -5.66175       -0.31265        1.19161
B         -5.25665       -1.79156        1.41449
B          1.32763       -1.81637       -2.01060
