45
isomer_2129.log	Energy: -113328.5890236
B         -2.73065       -1.63645       -0.90010
B         -2.64991       -3.22739        0.16778
B         -1.29762       -3.99506        0.39757
B          0.18520       -3.34120       -0.25445
B         -1.19277       -0.70195       -1.01113
B          1.64417       -0.85098       -0.85989
B          1.52416       -3.98948        0.55791
B         -3.94337       -0.75651       -0.23956
B          1.65282       -2.50287       -0.39849
B         -3.84783       -2.32462        0.27272
B          0.12038       -4.53851        0.79138
B          2.94909       -3.23861        0.38722
B          3.05450       -1.70394       -0.20879
B          4.48418       -0.86528        0.19792
B          0.33834        1.83192       -1.04353
B          1.80516        2.52730       -0.39997
B          3.20522        1.68616       -0.31365
B          4.61283        0.79623        0.01732
B          4.48180        2.40157        0.62007
B          3.13834        3.27817        0.25319
B          1.76181        4.07359        0.35450
B          0.35832        3.42202       -0.53383
B          0.33491        4.59605        0.55179
B         -2.49080        3.41222        0.05509
B         -1.10361        4.11578        0.22067
B         -2.53480        1.70797       -0.51425
B         -3.81338        2.57765        0.24650
B         -3.95343        0.99850       -0.24083
B         -1.17537        2.62677       -0.61128
B         -1.32394       -2.71623       -0.69576
B          3.27775       -0.03365       -0.61991
B         -1.18508        0.94234       -0.87151
B          4.34047       -2.48929        0.73961
B         -5.08560       -1.47027        0.88494
B         -5.10820        0.14224        0.50299
B         -5.11664        1.80805        0.77610
B         -6.10912        0.92324        1.55491
B         -6.06491       -0.55890        1.64264
B          1.75012        0.86165       -0.83715
B         -1.48132       -1.80691       -2.01434
B          0.17593       -1.82349       -1.22802
B          5.48753       -1.61709        1.20790
B          5.71110       -0.08462        1.15978
B          5.53146        1.46185        1.15983
B          0.28275        0.08202       -0.92390
