45
isomer_0213.log	Energy: -112974.2959312
B          2.59788       -1.37941        0.19408
B          2.79256       -3.31844       -0.03206
B          1.34674       -4.09260       -0.17375
B         -0.13795       -3.31840        0.28965
B          1.33912       -0.41184        0.67299
B         -1.74160       -0.78186        0.88354
B         -1.51217       -4.10884       -0.37163
B          3.90411       -0.57230        0.26183
B         -1.65792       -2.48632        0.24479
B          3.97325       -2.34023       -0.13514
B         -0.07482       -4.69475       -0.46614
B         -2.93509       -3.29942       -0.36894
B         -3.08498       -1.73176        0.19047
B         -4.50651       -0.95349       -0.24642
B         -0.41053        1.81073        0.94289
B         -1.86349        2.49628        0.35097
B         -3.23165        1.63797        0.29042
B         -4.58664        0.74183       -0.17160
B         -4.62658        2.38172       -0.52553
B         -3.25090        3.20074       -0.27584
B         -1.91118        4.13461       -0.27407
B         -0.48929        3.46196        0.41697
B         -0.53098        4.81605       -0.41205
B          2.33822        3.59485       -0.01018
B          0.90241        4.31728       -0.15198
B          2.43096        1.95779        0.45671
B          3.71788        2.76429       -0.17213
B          3.82940        1.17941        0.28881
B          1.01926        2.74281        0.61301
B          1.33699       -2.55564        0.60174
B         -3.22255       -0.07643        0.60403
B          1.04168        1.09376        0.80520
B         -4.43976       -2.59407       -0.57897
B          5.20231       -1.36894       -0.64358
B          5.08672        0.29555       -0.40443
B          5.05078        1.95604       -0.64086
B          6.18369        1.08741       -1.28074
B          6.24185       -0.42845       -1.27642
B         -1.80897        0.86378        0.89630
B          2.96387       -2.46422        1.38963
B         -0.38570       -1.65365        0.89781
B         -5.73286       -1.76774       -0.77258
B         -5.92797       -0.16463       -0.78351
B         -5.83627        1.40635       -0.81007
B          0.60670       -1.37775       -0.31323
