45
isomer_2131.log	Energy: -111764.2252687
B         -2.55743        1.84500        0.42017
B         -2.51373        3.48887        0.06889
B         -1.08909        4.29466       -0.14999
B          0.34693        3.42390        0.39521
B         -1.11825        0.91883        0.71997
B          1.75582        0.88924        0.82497
B          1.75737        4.19321       -0.27048
B         -4.03266        1.00171        0.32159
B          1.71252        2.50433        0.29202
B         -3.93616        2.69985       -0.10508
B          0.34704        4.88756       -0.40774
B          3.17218        3.31806       -0.29019
B          3.16239        1.68682        0.24795
B          4.60906        0.85369       -0.25318
B          0.27049       -1.63850        0.83712
B          1.64327       -2.35018        0.20806
B          3.11589       -1.57331        0.19156
B          4.58597       -0.76494       -0.28118
B          4.39790       -2.31557       -0.55442
B          3.07943       -3.18459       -0.40266
B          1.64023       -4.01919       -0.41252
B          0.25196       -3.23345        0.28007
B          0.21074       -4.66788       -0.57301
B         -2.60922       -3.20550       -0.04690
B         -1.20803       -4.04354       -0.29421
B         -2.60620       -1.57418        0.36103
B         -4.00849       -2.37070       -0.19278
B         -4.05674       -0.68627        0.29239
B         -1.18914       -2.42162        0.51898
B         -1.11685        2.64572        0.60663
B          3.22113        0.14872        0.61861
B         -1.14135       -0.70035        0.69196
B          4.46542        2.41758       -0.47255
B         -5.26823        1.92301       -0.63183
B         -5.29025        0.28819       -0.42613
B         -5.31761       -1.53845       -0.69170
B         -6.46498       -0.55678       -1.28511
B         -6.44284        0.99556       -1.25826
B          1.73235       -0.75637        0.79651
B         -2.01266       -2.59193        1.67865
B          0.31969        1.81076        0.89678
B          5.96518        1.68870       -0.68888
B          6.13623       -0.02579       -0.78219
B          5.91384       -1.75240       -0.81903
B          0.16686       -1.95248        0.02094
