45
isomer_2134.log	Energy: -111845.9847782
B          2.57395        1.75531       -0.43868
B          2.55348        3.39152       -0.05138
B          1.14074        4.20983        0.19626
B         -0.31017        3.36896       -0.35640
B          1.12107        0.85372       -0.74717
B         -1.75387        0.86186       -0.83005
B         -1.70577        4.14086        0.33702
B          4.03924        0.89196       -0.37015
B         -1.68632        2.46425       -0.26244
B          3.96723        2.58142        0.09412
B         -0.28587        4.81461        0.47820
B         -3.13121        3.28299        0.34887
B         -3.14591        1.66391       -0.22469
B         -4.59901        0.83791        0.26962
B         -0.30037       -1.68313       -0.90895
B         -1.67709       -2.39141       -0.28469
B         -3.13971       -1.59700       -0.23963
B         -4.59593       -0.78111        0.26220
B         -4.42516       -2.33954        0.50013
B         -3.11885       -3.22121        0.31907
B         -1.69016       -4.07350        0.29938
B         -0.29752       -3.28999       -0.38691
B         -0.26770       -4.74312        0.43440
B          2.56621       -3.30445       -0.08206
B          1.15659       -4.13036        0.15804
B          2.58045       -1.66469       -0.45435
B          3.97687       -2.49035        0.07088
B          4.04245       -0.79644       -0.37789
B          1.15175       -2.49095       -0.61949
B          1.14211        2.57760       -0.59627
B         -3.22669        0.13511       -0.62826
B          1.12414       -0.76585       -0.75459
B         -4.43416        2.39474        0.52182
B          5.29348        1.77690        0.59328
B          5.29350        0.14681        0.35189
B          5.30006       -1.68540        0.57742
B          6.46411       -0.73114        1.18296
B          6.46116        0.82156        1.19007
B         -1.75074       -0.78415       -0.83759
B          1.18523       -1.19851        1.25884
B         -0.30693        1.76696       -0.89314
B         -5.94121        1.67985        0.73410
B         -6.13296       -0.03404        0.79143
B         -5.93189       -1.76364        0.78892
B          0.72139       -0.45865       -1.41413
