45
isomer_2135.log	Energy: -113510.9143729
B          2.53385        1.62275       -0.47919
B          2.52393        3.32733       -0.18997
B          1.18373        4.10783        0.02916
B         -0.32545        3.34653       -0.40583
B          1.00944        0.80124       -0.72271
B         -1.76558        0.83840       -0.81928
B         -1.63774        4.09084        0.40136
B          3.96167        0.82916       -0.55283
B         -1.73718        2.45699       -0.21649
B          3.89827        2.47939       -0.05444
B         -0.22703        4.69296        0.41953
B         -3.05685        3.26659        0.41242
B         -3.20332        1.75638       -0.19147
B         -4.56916        0.83431        0.23331
B         -0.41688       -1.59817       -0.96337
B         -1.87406       -2.42701       -0.55513
B         -3.33064       -1.65754       -0.44702
B         -4.74321       -0.77964       -0.16016
B         -4.60390       -2.40746        0.43640
B         -3.22831       -3.22433        0.05855
B         -1.84766       -4.00836        0.20109
B         -0.40487       -3.28747       -0.50230
B         -0.43953       -4.50644        0.54647
B          2.34063       -3.03936        0.29986
B          0.92683       -3.86220        0.38294
B          2.56179       -1.73958       -0.90661
B          3.84487       -2.63853        0.24973
B          3.98173       -0.91934       -0.62824
B          1.05870       -2.45558       -0.68078
B          1.14209        2.54475       -0.70368
B         -3.32886        0.06344       -0.64395
B          1.03027       -0.79334       -0.96575
B         -4.46775        2.47487        0.72358
B          5.14908        1.66850        0.48320
B          5.22059       -0.04592        0.17623
B          4.84791       -1.63000        0.84295
B          5.90861       -0.65051        1.51265
B          6.13934        0.78719        1.24542
B         -1.80938       -0.75503       -0.80120
B          2.95484       -1.34492        0.82927
B         -0.36549        1.67569       -0.86299
B         -5.67887        1.59347        1.07796
B         -5.89706        0.05880        0.99848
B         -5.66877       -1.47185        0.96572
B          2.40940       -0.07481       -0.07292
