45
isomer_2138.log	Energy: -113567.4543917
B         -2.75679       -1.57322       -0.04868
B         -3.29297       -3.17321       -0.18650
B         -2.13504       -4.08492        0.15861
B         -0.20497       -2.51548       -0.75147
B         -2.40987        0.14866       -0.32754
B          2.01803       -0.95390       -1.29989
B          0.89666       -3.53038        0.32334
B         -4.03129       -0.45655       -0.07871
B          1.41417       -2.20498       -0.46264
B         -4.47863       -2.03550        0.00387
B         -0.65109       -3.89166        0.35546
B          2.38038       -3.12836        0.57349
B          3.11658       -1.96230       -0.40695
B          4.61405       -1.38618        0.08622
B          0.71076        1.40064       -0.71641
B          2.27123        2.17810       -0.46126
B          3.65480        1.31551       -0.51590
B          4.94290        0.30654       -0.10079
B          4.96868        1.95901        0.43132
B          3.70115        2.90424        0.04764
B          2.40183        3.83382        0.10144
B          0.87002        3.08720       -0.27331
B          1.05466        4.56365        0.27262
B         -1.90968        3.42948        0.14072
B         -0.41337        4.08432        0.16598
B         -2.11469        1.81058       -0.14410
B         -3.37215        2.88508        0.34168
B         -3.65519        1.22178        0.08238
B         -0.62484        2.39105       -0.35730
B         -1.77874       -2.81731       -1.03306
B          3.59441       -0.36989       -0.91603
B         -0.84644        0.63087       -0.63416
B          3.90802       -2.68941        0.94252
B         -5.63187       -1.00504        0.30357
B         -5.15892        0.66966        0.44132
B         -4.88681        2.33547        0.61443
B         -6.32043        1.66310        0.80910
B         -6.65183        0.17680        0.65001
B          2.08855        0.60761       -0.98333
B         -1.51531       -2.46777        0.68193
B          0.49904       -0.57567       -0.96633
B          5.17422       -1.99851        1.45740
B          5.77908       -0.60830        1.18714
B          5.93712        0.91669        0.99537
B         -1.15544       -1.09131       -0.50319
