45
isomer_0214.log	Energy: -113435.9591085
B         -2.48097        1.76448        0.50723
B         -2.46081        3.42206       -0.06175
B         -1.10171        4.19835       -0.24613
B          0.33359        3.41109        0.31060
B         -1.18133        0.93823        1.05538
B          1.74192        0.89503        0.75809
B          1.72153        4.15067       -0.46393
B         -3.81238        0.96111        0.18884
B          1.76915        2.55820        0.31062
B         -3.82307        2.61008       -0.08820
B          0.31590        4.75493       -0.55222
B          3.08575        3.29019       -0.42943
B          3.14311        1.70840        0.13474
B          4.58259        0.81807       -0.04953
B          0.32788       -1.67439        1.33943
B          1.62823       -2.47201        0.58513
B          3.09368       -1.69120        0.41447
B          4.47163       -0.84857       -0.08479
B          4.34513       -2.50524       -0.51318
B          2.93681       -3.24904       -0.07882
B          1.52430       -3.96260       -0.23101
B         -0.00203       -3.23137        0.38030
B          0.20485       -4.41859       -0.74421
B         -2.56668       -3.19234       -0.88288
B         -1.20754       -3.97663       -0.93622
B         -2.43836       -1.72796        0.44644
B         -3.70162       -2.21463       -0.62508
B         -3.75650       -0.77188        0.09889
B         -1.75857       -3.35022        0.48055
B         -1.14531        2.65122        0.67993
B          3.27423        0.02326        0.70201
B         -1.25246       -0.66041        1.06533
B          4.40564        2.41231       -0.78912
B         -5.15988        1.80098       -0.48640
B         -5.16751        0.12659       -0.14454
B         -5.13246       -1.43873       -0.74804
B         -6.28734       -0.57005       -1.17349
B         -6.25015        0.91647       -1.11417
B          1.70258       -0.77216        1.02892
B         -1.11211       -2.30806        1.43643
B          0.35583        1.88413        0.98083
B          5.45716        1.42151       -1.24423
B          5.65293       -0.11356       -1.14464
B          5.46241       -1.65620       -1.05979
B          0.26197        0.08849        0.98760
