45
isomer_2141.log	Energy: -113351.2315702
B         -2.53971       -1.54831       -0.54323
B         -2.60173       -3.28353       -0.06125
B         -1.18824       -3.94610        0.15441
B          0.26788       -3.34087       -0.45867
B         -1.08855       -0.93888       -0.88002
B          1.67957       -0.80790       -0.95185
B          1.64965       -4.03949        0.35613
B         -3.92873       -0.68892       -0.37792
B          1.71446       -2.43009       -0.33919
B         -3.84041       -2.36089        0.10087
B          0.26197       -4.59040        0.51263
B          3.04533       -3.19992        0.33467
B          3.13393       -1.66946       -0.19634
B          4.48343       -0.80429        0.28491
B          0.42078        1.74980       -0.99433
B          1.80490        2.48862       -0.35299
B          3.18572        1.67996       -0.28433
B          4.52492        0.81503        0.16735
B          4.55647        2.46661        0.58809
B          3.14338        3.23223        0.29966
B          1.79406        4.12376        0.33383
B          0.40453        3.41263       -0.43500
B          0.39929        4.72816        0.45252
B         -2.43010        3.34394       -0.02255
B         -1.02994        4.14300        0.13022
B         -2.50272        1.70003       -0.47663
B         -3.78854        2.59346        0.26296
B         -3.93441        0.96532       -0.33465
B         -1.09311        2.65459       -0.65441
B         -1.14818       -2.63692       -1.02195
B          3.21425       -0.00125       -0.58871
B         -1.02874        0.91679       -0.98687
B          4.46854       -2.47250        0.61735
B         -5.10792       -1.51219        0.71898
B         -5.07295        0.13929        0.47205
B         -5.10061        1.83189        0.76684
B         -6.15520        0.92113        1.43236
B         -6.12551       -0.60634        1.45323
B          1.73243        0.81372       -0.90940
B         -2.38839        0.13543       -0.97988
B          0.37142       -1.69345       -1.09193
B          5.68959       -1.58925        0.95766
B          5.87971       -0.04141        0.94691
B          5.69772        1.52796        0.96398
B         -1.43022       -2.18098        0.63450
