45
isomer_2144.log	Energy: -113458.2571097
B         -2.64366       -1.53906       -0.56742
B         -2.62342       -3.24411        0.00715
B         -1.32147       -4.06123       -0.05510
B          0.19784       -3.32389       -0.78078
B         -1.22202       -0.75452       -0.92290
B          1.67658       -0.91964       -0.97177
B          1.46717       -4.09838        0.23409
B         -3.98324       -0.77963       -0.27653
B          1.34384       -2.34997        0.15313
B         -3.90262       -2.35429        0.18795
B          0.07751       -4.64475        0.18068
B          2.80190       -3.27329        0.45597
B          2.97187       -1.80187       -0.18509
B          4.32287       -0.87308        0.36251
B          0.32525        1.78481       -0.96977
B          1.80287        2.54569       -0.60301
B          3.15257        1.67637       -0.28979
B          4.54925        0.73655       -0.00365
B          4.45144        2.41779        0.53547
B          3.11885        3.28269        0.15993
B          1.76625        4.13460        0.21209
B          0.33281        3.36839       -0.39766
B          0.35472        4.72126        0.42032
B         -2.46864        3.41475        0.09179
B         -1.08994        4.15978        0.19761
B         -2.55502        1.73116       -0.65921
B         -3.74055        2.56419        0.27061
B         -3.93551        0.98961       -0.21582
B         -1.14617        2.51053       -0.42136
B         -1.19238       -2.38575       -0.38704
B          3.18249       -0.08173       -0.59012
B          0.24996        0.00489       -1.08505
B          4.16525       -2.51397        0.85777
B         -5.22757       -1.53262        0.69860
B         -5.21801        0.13052        0.33039
B         -5.06063        1.74167        0.78724
B         -6.12006        0.83977        1.49592
B         -6.22392       -0.64433        1.41041
B          1.74094        0.85457       -0.85913
B         -1.22428        0.93901       -1.04625
B          0.29171       -1.81353       -1.48247
B          5.36019       -1.64004        1.27565
B          5.61021       -0.10898        1.18441
B          5.47496        1.45103        1.08238
B          0.10985       -1.26096        0.17787
