45
isomer_2146.log	Energy: -113240.5934373
B          2.56516       -1.43552        0.49652
B          2.63148       -3.18369        0.11904
B          1.32248       -4.05542       -0.01119
B         -0.12831       -3.12710        0.13598
B          1.06992       -0.42444       -0.06118
B         -1.56783       -0.68566        0.43303
B         -1.55079       -4.09079       -0.19559
B          3.98943       -0.70350        0.25613
B         -1.53308       -2.30304       -0.04977
B          3.93472       -2.33998       -0.01159
B         -0.07253       -4.68014       -0.17082
B         -2.92230       -3.32208       -0.16815
B         -3.04623       -1.69894        0.16664
B         -4.53865       -0.91967        0.04465
B         -0.36776        1.76413        1.06707
B         -1.79496        2.53461        0.51263
B         -3.19791        1.70067        0.30810
B         -4.53353        0.74205       -0.10395
B         -4.51270        2.39459       -0.57005
B         -3.16819        3.25546       -0.18079
B         -1.79783        4.12145       -0.24586
B         -0.37840        3.40303        0.52967
B         -0.39783        4.66394       -0.44899
B          2.36659        3.21723       -0.16522
B          1.01028        4.04509       -0.21319
B          2.46197        1.57207        0.45355
B          3.72144        2.45234       -0.33055
B          3.93142        0.96003        0.22152
B          1.09926        2.53104        0.64839
B          1.20444       -2.22422        0.44662
B         -3.18695       -0.01730        0.57206
B          1.15235        0.82718        1.13117
B         -4.32651       -2.57600       -0.52596
B          5.26805       -1.50411       -0.53226
B          5.28805        0.13970       -0.23322
B          5.17341        1.77104       -0.71194
B          6.29436        0.92103       -1.28760
B          6.30940       -0.58988       -1.25526
B         -1.68508        0.86848        0.82427
B          1.15810       -0.80317        1.57664
B         -0.22936       -1.52166        1.09471
B         -5.48123       -1.67518       -0.96538
B         -5.74201       -0.11890       -0.97422
B         -5.61882        1.42583       -1.01657
B         -0.17352       -1.31065       -0.60907
