45
isomer_2147.log	Energy: -113435.3598646
B         -2.46695       -1.72364       -0.42819
B         -2.68033       -3.23034        0.76559
B         -1.34710       -4.03958        0.84850
B         -0.06978       -3.23996       -0.34678
B         -1.26175       -0.64653       -0.94567
B          1.70622       -0.79532       -1.00126
B          1.42019       -3.96719        0.30889
B         -3.76361       -0.70779       -0.10539
B          1.58002       -2.49968       -0.52649
B         -3.77208       -2.17668        0.57801
B          0.08580       -4.45217        0.75897
B          2.85948       -3.27003        0.16699
B          3.05899       -1.74428       -0.37922
B          4.42766       -0.89414        0.16306
B          0.39144        1.86285       -0.90506
B          1.82827        2.53106       -0.35116
B          3.22645        1.69602       -0.20954
B          4.63779        0.75089       -0.06226
B          4.49655        2.37934        0.67966
B          3.18481        3.26665        0.36587
B          1.82151        4.15012        0.42227
B          0.41652        3.41487       -0.28115
B          0.42767        4.75864        0.56487
B         -2.40062        3.44953        0.13355
B         -1.02069        4.20537        0.29001
B         -2.46301        1.78762       -0.43996
B         -3.80605        2.68363        0.11322
B         -3.81016        1.03828       -0.16132
B         -1.10226        2.66899       -0.56614
B         -1.82458       -3.37836       -0.58939
B          3.28442       -0.02550       -0.72217
B         -1.15682        0.96295       -0.98291
B          4.29287       -2.54431        0.57881
B         -5.17588       -1.34631        0.69264
B         -5.18065        0.20198        0.08967
B         -5.17419        1.91267        0.43138
B         -6.26454        1.01250        1.03766
B         -6.34025       -0.47023        1.07617
B          1.76693        0.85923       -0.67790
B          0.26687        0.08256       -0.87537
B          0.28452       -1.66803       -1.23261
B          5.48058       -1.73162        1.02795
B          5.73006       -0.18318        1.03312
B          5.54169        1.35590        1.10803
B         -1.13605       -2.29678       -1.44496
