45
isomer_2148.log	Energy: -113517.8956792
B          2.58581       -1.31879        0.85364
B          3.88475       -2.61556        1.13186
B          2.75882       -2.86009       -0.10614
B          1.05977       -2.43165        0.49651
B          0.99898       -0.60042        1.25921
B         -1.65010       -1.20173        1.19372
B          0.08196       -3.12268       -1.02435
B          3.65647       -0.15761        0.04893
B         -0.71980       -2.35368        0.22374
B          4.24227       -1.80186       -0.09957
B          1.57556       -3.07159       -0.98042
B         -1.46307       -3.12168       -1.05632
B         -2.35146       -2.08327       -0.07730
B         -3.90930       -1.71045       -0.66462
B         -0.96323        1.48640        1.10353
B         -2.56479        1.95775        0.86216
B         -3.75887        0.84486        0.54384
B         -4.78466       -0.41562       -0.02061
B         -5.04544        1.33760       -0.42513
B         -4.07431        2.42396        0.18707
B         -2.93358        3.56454        0.12065
B         -1.36721        3.11582        0.63957
B         -1.71818        4.43996       -0.17203
B          1.32692        3.60355       -0.19834
B         -0.20267        4.13113       -0.11062
B          1.80566        2.13171        0.40624
B          2.82745        3.08654       -0.56444
B          3.29896        1.52163       -0.03291
B          0.26100        2.60522        0.60651
B          2.52231       -2.80682        1.79818
B         -3.30511       -0.85101        0.68469
B          0.63883        0.95904        1.07458
B         -3.03015       -2.89560       -1.49974
B          4.90172       -0.74740       -1.08469
B          4.61314        0.89691       -0.84481
B          4.16842        2.56840       -1.17928
B          5.27343        1.83471       -1.99364
B          5.56707        0.35286       -2.00363
B         -2.10421        0.34072        1.04723
B          2.20559        0.43521        0.71023
B         -0.19304       -1.69664        1.72964
B         -4.41663       -2.52419       -1.94053
B         -5.27295       -1.24280       -1.58867
B         -5.61750        0.19180       -1.26240
B          1.19137       -2.19918        2.20844
