45
isomer_2149.log	Energy: -113344.0920536
B          2.44528        1.70924       -0.30232
B          2.40225        3.40300        0.10510
B          1.03195        4.12714        0.32619
B         -0.41710        3.35074       -0.33299
B          0.98718        0.85740       -0.50509
B         -1.77208        0.80888       -0.94681
B         -1.80229        4.01495        0.39984
B          3.88912        1.00120       -0.31810
B         -1.83759        2.44326       -0.38895
B          3.80557        2.63424        0.08871
B         -0.40689        4.62193        0.62153
B         -3.19906        3.17652        0.26772
B         -3.25647        1.66510       -0.33697
B         -4.60661        0.70404        0.05222
B         -0.30291       -1.48297       -0.85264
B         -1.71847       -2.43653       -0.59945
B         -3.22089       -1.74961       -0.52844
B         -4.68433       -0.92305       -0.26985
B         -4.42840       -2.46451        0.48536
B         -2.97036       -3.17152        0.25161
B         -1.49514       -3.70349        0.57075
B         -0.17496       -3.23333       -0.55776
B         -0.05137       -3.84209        1.03310
B          2.81753       -3.22417       -0.07558
B          1.38090       -3.66925        0.39956
B          2.64621       -1.43537       -0.91146
B          3.83659       -2.11778        0.24446
B          4.01919       -0.63908       -0.61846
B          1.30861       -2.41927       -0.98303
B          1.06154        2.53913       -0.42537
B         -3.31664       -0.03049       -0.76762
B          1.10592       -0.72771       -0.27928
B         -4.60837        2.35726        0.49565
B          5.15469        1.87498        0.47275
B          5.34883        0.26602       -0.16685
B          5.29912       -1.33192        0.32894
B          6.44495       -0.52121        0.87919
B          6.22870        0.92024        1.06536
B         -1.77584       -0.76855       -0.99075
B          2.08736       -1.90069        0.70233
B         -0.37340        1.69267       -0.86155
B         -5.79562        1.45046        0.81846
B         -5.93060       -0.09897        0.81221
B         -5.59102       -1.59460        0.90019
B          0.43495       -2.13225        0.69809
