45
isomer_2150.log	Energy: -113473.5826234
B         -2.63595       -1.41115       -0.53916
B         -2.82151       -3.09040       -0.40509
B         -1.65898       -3.94153        0.16323
B         -0.05912       -3.15211       -0.34193
B         -1.07064       -0.85648       -0.29120
B          1.75454       -0.93582       -1.07805
B          1.16852       -3.71811        0.79651
B         -4.02918       -0.51117       -0.47802
B          1.53415       -2.48247       -0.32104
B         -4.14492       -2.11802       -0.16800
B         -0.38084       -3.98162        1.00495
B          2.66259       -3.24441        0.61123
B          3.00444       -1.80113       -0.20489
B          4.40381       -0.99814        0.24582
B          0.44382        1.66147       -0.77344
B          1.96698        2.40020       -0.54981
B          3.39178        1.55976       -0.51068
B          4.77580        0.54960       -0.31402
B          4.68523        2.24912        0.29988
B          3.39906        3.13868        0.04813
B          2.03059        3.98298        0.22485
B          0.55954        3.30337       -0.34733
B          0.65143        4.57379        0.58809
B         -2.24453        3.39240        0.31257
B         -0.83714        4.09382        0.43212
B         -2.41961        1.74203       -0.30685
B         -3.67907        2.61116        0.43876
B         -3.90292        1.16114       -0.35039
B         -0.96061        2.49418       -0.12091
B         -1.38675       -2.43569       -1.25333
B          3.35101       -0.20201       -0.82746
B         -1.04200        0.80937       -0.48231
B          4.16278       -2.56087        0.87832
B         -5.36585       -1.30415        0.34792
B         -5.30533        0.39596        0.14379
B         -5.11472        2.01374        0.66077
B         -6.37610        1.16305        1.07219
B         -6.45859       -0.32187        0.98845
B          1.88716        0.76368       -0.88565
B         -1.38146       -2.31008        0.55521
B          0.18918       -1.74863       -1.24335
B          5.43201       -1.81381        1.16551
B          5.81089       -0.29249        0.93844
B          5.70238        1.21074        0.81958
B          0.30816       -0.03807       -0.94340
