45
isomer_2152.log	Energy: -113441.9529685
B         -2.45423        1.82267        0.47162
B         -2.37907        3.45060       -0.10718
B         -0.98555        4.21767       -0.27616
B          0.43661        3.42900        0.34070
B         -1.14987        0.95829        1.03622
B          1.77313        0.86317        0.72157
B          1.82695        4.13201       -0.42729
B         -3.73149        1.01536       -0.01153
B          1.84356        2.55199        0.45251
B         -3.80208        2.68852       -0.15541
B          0.44752        4.75314       -0.56145
B          3.18778        3.24767       -0.35989
B          3.20914        1.67935        0.15247
B          4.64468        0.73313        0.05092
B          0.27884       -1.65324        1.30352
B          1.55462       -2.48620        0.56507
B          3.02674       -1.74075        0.31612
B          4.41486       -0.90300       -0.20977
B          4.27073       -2.55991       -0.59260
B          2.83396       -3.27008       -0.16832
B          1.38615       -3.97893       -0.24444
B         -0.07228       -3.24223        0.39172
B          0.05634       -4.49887       -0.66543
B         -2.65680       -3.19436       -0.79954
B         -1.37910       -4.10420       -0.81434
B         -2.47314       -1.74396        0.39381
B         -3.73527       -2.13789       -0.65361
B         -3.68293       -0.64781       -0.00627
B         -1.81574       -3.42339        0.58885
B         -1.09219        2.68635        0.57493
B          3.25420       -0.02393        0.65234
B         -1.28550       -0.63386        1.02521
B          4.49648        2.36602       -0.69296
B         -5.13105        1.93092       -0.50732
B         -5.17662        0.23221       -0.07943
B         -5.16191       -1.32049       -0.68425
B         -6.36852       -0.47803       -1.00180
B         -6.24597        1.00374       -1.06224
B          1.68362       -0.78703        1.00446
B         -1.16762       -2.28604        1.41816
B          0.39706        1.88269        0.97169
B          5.52196        1.33258       -1.14171
B          5.70065       -0.20790       -1.09825
B          5.45333       -1.75072       -1.07591
B          0.24800        0.09572        0.96523
