45
isomer_2153.log	Energy: -113388.9734968
B          2.44581        1.66274       -0.61266
B          2.41826        3.39881       -0.02758
B          1.08854        4.27227        0.06449
B         -0.36358        3.51294       -0.49602
B          1.85747        0.00843       -1.09492
B         -1.60767        0.81260       -0.86929
B         -1.72030        4.21994        0.27361
B          3.85413        0.89637       -0.18245
B         -1.74394        2.55520       -0.54428
B          3.65695        2.48859        0.26321
B         -0.34176        4.85647        0.36318
B         -3.02597        3.28369        0.25840
B         -3.07295        1.68735       -0.21482
B         -4.41380        0.77562        0.27494
B         -0.26013       -1.90722       -1.19455
B         -1.62341       -2.57411       -0.48607
B         -2.99991       -1.75550       -0.18678
B         -4.35984       -0.87298        0.29305
B         -4.19059       -2.50178        0.85498
B         -2.91905       -3.33172        0.31095
B         -1.58964       -4.22604        0.31880
B         -0.30588       -3.54954       -0.58709
B         -0.20013       -4.79091        0.43627
B          2.47947       -3.23019       -0.03123
B          1.20862       -4.18495        0.10282
B          2.56060       -1.50934       -0.56623
B          3.73863       -2.36152        0.32886
B          3.90975       -0.77713       -0.19445
B          1.18177       -2.94435       -0.97209
B          1.13152        2.77463       -0.82115
B         -3.13724       -0.03809       -0.53433
B          1.33019       -1.47420       -1.52714
B         -4.29422        2.42187        0.78678
B          4.79620        1.71840        1.07702
B          4.91896        0.05164        0.79790
B          4.94141       -1.62878        1.03467
B          5.88129       -0.69402        1.85927
B          5.79493        0.81582        1.89713
B         -1.54528       -0.84904       -0.85445
B          1.03967        1.21960       -1.45572
B         -0.38396        1.97157       -1.18593
B         -5.32074        1.49008        1.38466
B         -5.47229       -0.05915        1.40854
B         -5.25001       -1.58904        1.42598
B         -0.09188       -0.04503       -1.17629
