45
isomer_2154.log	Energy: -111931.3573674
B          2.65976       -1.65451        0.37314
B          2.64469       -3.28539       -0.03624
B          1.23466       -4.10493       -0.29505
B         -0.21904       -3.27638        0.26879
B          1.20390       -0.76196        0.69366
B         -1.67100       -0.78068        0.77616
B         -1.61205       -4.04342       -0.43512
B          4.12220       -0.78549        0.31643
B         -1.59815       -2.37502        0.18694
B          4.05578       -2.46875       -0.17065
B         -0.18993       -4.71053       -0.58527
B         -3.04031       -3.19018       -0.43551
B         -3.06037       -1.57905        0.15989
B         -4.51615       -0.75123       -0.32334
B         -0.22588        1.76778        0.88960
B         -1.60490        2.47991        0.27483
B         -3.06490        1.68136        0.21891
B         -4.51840        0.86754       -0.29403
B         -4.35276        2.42960       -0.51086
B         -3.04936        3.31304       -0.31778
B         -1.62348        4.16968       -0.28644
B         -0.22830        3.38155        0.38932
B         -0.20323        4.84574       -0.41227
B          2.63537        3.40955        0.08496
B          1.22306        4.23399       -0.14408
B          2.65500        1.76497        0.43505
B          4.04872        2.60224       -0.07885
B          4.11985        0.90265        0.34699
B          1.22357        2.58421        0.61121
B          1.23063       -2.48357        0.51947
B         -3.14620       -0.05612        0.58408
B          1.20165        0.85736        0.72298
B         -4.34617       -2.30396       -0.59656
B          5.37939       -1.65319       -0.65877
B          5.37403       -0.02653       -0.39536
B          5.37458        1.80857       -0.59610
B          6.54179        0.86643       -1.21438
B          6.54395       -0.68604       -1.24248
B         -1.67328        0.86508        0.80595
B         -0.15125       -2.15296        1.90193
B         -0.22109       -1.68178        0.82715
B         -5.85555       -1.59123       -0.79929
B         -6.05293        0.12264       -0.83346
B         -5.85756        1.85271       -0.80755
B         -1.39033       -0.40370        0.08201
