45
isomer_2155.log	Energy: -113163.0943418
B         -2.55830       -1.62894       -0.50712
B         -2.60620       -3.33579       -0.06502
B         -1.23754       -4.15588        0.12493
B          0.18652       -3.35132       -0.44151
B         -1.22150       -0.65904       -0.89291
B          1.66559       -0.69816       -0.85517
B          1.57147       -4.09558        0.33892
B         -3.92696       -0.77221       -0.29570
B          1.58217       -2.43678       -0.26696
B         -3.88065       -2.43647        0.11739
B          0.15959       -4.71139        0.42796
B          2.89570       -3.22077        0.34441
B          2.98331       -1.65779       -0.19141
B          4.36797       -0.81666        0.30622
B          0.27821        1.77298       -1.02309
B          1.64275        2.52075       -0.32438
B          3.05395        1.69655       -0.19678
B          4.40003        0.83724        0.30815
B          4.37569        2.51946        0.65147
B          2.98923        3.30733        0.34366
B          1.64972        4.16597        0.32102
B          0.26615        3.40082       -0.43208
B          0.21580        4.76332        0.43434
B         -2.52328        3.40737        0.00225
B         -1.17901        4.16521        0.15420
B         -2.51167        1.69456       -0.50077
B         -3.82995        2.54513        0.15157
B         -3.91564        0.93724       -0.29182
B         -1.18762        2.56052       -0.67189
B         -1.26217       -2.56400       -0.66087
B          3.14996       -0.00401       -0.56251
B         -1.09615        0.91288       -0.89589
B          4.32571       -2.48723        0.65082
B         -5.14372       -1.58673        0.70856
B         -5.10649        0.05532        0.46164
B         -5.13000        1.71135        0.71237
B         -6.19391        0.82756        1.42709
B         -6.20001       -0.69508        1.42364
B          1.67278        0.94654       -0.88560
B         -0.00093       -1.29390        0.42581
B          0.19762       -1.77161       -1.07505
B          5.54627       -1.63640        0.94261
B          5.73920       -0.03319        0.96825
B          5.58812        1.56046        0.97064
B          0.20824       -0.25966       -1.68140
