45
isomer_2156.log	Energy: -113348.5673896
B          2.78231        1.49990       -0.67029
B          2.85211        3.16988       -0.15331
B          1.56123        4.04414       -0.05432
B          0.04689        3.33550       -0.60145
B          1.38704        0.81047       -1.15913
B         -1.64340        0.83234       -0.98558
B         -1.21808        4.18169        0.17616
B          4.04599        0.65019       -0.12466
B         -1.44484        2.53946       -0.51274
B          4.10917        2.28692        0.11345
B          0.21338        4.72968        0.19339
B         -2.63232        3.42156        0.28653
B         -2.89127        1.86984       -0.16482
B         -4.36231        1.14670        0.33545
B         -0.14648       -1.65361       -1.43113
B         -2.14476       -2.55711       -0.61939
B         -3.30131       -1.49292       -0.14094
B         -4.44468       -0.47533        0.50366
B         -4.46149       -2.08942        1.02671
B         -3.25164       -3.01182        0.52184
B         -1.93722       -3.87825        0.43752
B         -0.54385       -3.24560       -0.81294
B         -0.57384       -4.44847        0.34320
B          2.28947       -3.30715        0.16495
B          0.84056       -3.99392        0.11709
B          2.52492       -1.69540       -0.37312
B          3.67112       -2.56953        0.52125
B          3.92096       -1.03612        0.00118
B          1.10886       -2.50280       -0.61210
B          1.46223        2.45460       -0.83283
B         -3.22310        0.20047       -0.48553
B          1.23550       -0.79541       -1.00343
B         -3.97152        2.72367        0.88075
B          5.30527        1.43105        0.77215
B          5.19706       -0.23447        0.62786
B          5.03342       -1.87086        1.06429
B          6.11307       -0.99860        1.75096
B          6.22103        0.49989        1.64440
B         -1.92925       -0.81790       -1.28830
B         -0.21970        0.02737       -0.99441
B         -0.10802        1.76497       -1.16958
B         -5.08267        1.92951        1.54028
B         -5.45365        0.44350        1.57705
B         -5.46775       -1.08331        1.57672
B         -1.46842       -2.23531       -1.98680
