45
isomer_2158.log	Energy: -113441.9687090
B         -2.45195        1.82266        0.46841
B         -2.37528        3.45090       -0.11111
B         -0.98107        4.21682       -0.27963
B          0.43978        3.42707        0.33809
B         -1.14798        0.95893        1.03478
B          1.77529        0.86192        0.72540
B          1.83245        4.13203       -0.42204
B         -3.73112        1.01780       -0.01289
B          1.84698        2.55148        0.45967
B         -3.79911        2.69051       -0.15803
B          0.45310        4.75199       -0.56227
B          3.19255        3.24783       -0.34975
B          3.21421        1.68034        0.16638
B          4.64436        0.72923        0.04551
B          0.27802       -1.65377        1.30413
B          1.55382       -2.48777        0.56685
B          3.02596       -1.74319        0.31743
B          4.41210       -0.90598       -0.21412
B          4.26647       -2.56246       -0.59765
B          2.83083       -3.27183       -0.16902
B          1.38230       -3.97973       -0.24383
B         -0.07477       -3.24215        0.39336
B          0.05196       -4.49986       -0.66283
B         -2.66011       -3.19368       -0.79718
B         -1.38296       -4.10401       -0.81211
B         -2.47394       -1.74131        0.39405
B         -3.73742       -2.13582       -0.65200
B         -3.68425       -0.64550       -0.00631
B         -1.81865       -3.42138        0.59084
B         -1.08976        2.68630        0.57258
B          3.25570       -0.02703        0.65398
B         -1.28481       -0.63277        1.02377
B          4.49755        2.36395       -0.69015
B         -5.12937        1.93450       -0.50917
B         -5.17704        0.23613       -0.08023
B         -5.16365       -1.31708       -0.68377
B         -6.36931       -0.47360       -1.00218
B         -6.24549        1.00821       -1.06329
B          1.68434       -0.78828        1.00744
B         -1.16927       -2.28463        1.41971
B          0.39870        1.88203        0.97206
B          5.51905        1.33031       -1.14805
B          5.69531       -0.21054       -1.10729
B          5.44683       -1.75360       -1.08543
B          0.24964        0.09503        0.96589
