45
isomer_2161.log	Energy: -113228.7386131
B          2.76386        1.90464       -0.45969
B          2.46604        3.38119        0.04442
B          1.07723        4.00206        0.16154
B         -0.31155        3.32846       -0.55170
B          1.97042        0.58523       -0.78443
B         -1.77748        0.82898       -0.88752
B         -1.72070        4.07323        0.18127
B          4.00038        0.98317       -0.23382
B         -1.82088        2.50905       -0.67892
B          3.97882        2.63478        0.29772
B         -0.32396        4.57928        0.42019
B         -3.10967        3.31596        0.08000
B         -3.20890        1.71106       -0.35561
B         -4.59279        0.86053        0.03922
B         -0.34276       -1.80243       -1.32039
B         -1.64310       -2.44618       -0.32408
B         -3.04446       -1.67607       -0.08422
B         -4.41199       -0.74706        0.42852
B         -4.22586       -2.35766        1.00017
B         -2.91665       -3.23959        0.51834
B         -1.64574       -4.06571        0.36077
B         -0.29420       -3.32758       -0.63872
B         -0.21764       -4.56321        0.38765
B          2.51643       -3.23675       -0.37702
B          1.17265       -4.00696       -0.09985
B          2.36759       -1.50516       -0.54363
B          3.72672       -2.30679        0.07879
B          3.84941       -0.71557       -0.19329
B          1.23276       -2.68693       -1.35353
B          1.17242        2.29471       -0.64607
B         -3.25230       -0.03342       -0.53527
B          1.09435       -0.87161       -1.14300
B         -4.38355        2.51355        0.61579
B          5.20635        1.78147        0.89667
B          4.93382        0.09825        0.77062
B          4.85568       -1.59780        0.95560
B          5.90246       -0.75839        1.75323
B          6.09265        0.75140        1.69382
B         -1.76245       -0.83864       -0.94028
B          0.60963        0.80559       -1.49888
B         -0.48653        1.81478       -1.23880
B         -5.34830        1.54692        1.25737
B         -5.59101        0.05488        1.35261
B         -5.37822       -1.50063        1.41901
B          0.82103       -2.07504        0.17539
