45
isomer_2164.log	Energy: -113363.7944290
B          2.54510       -1.69525        0.53992
B          2.43638       -3.00316       -0.47462
B          1.04121       -3.40596       -1.08901
B         -0.28665       -3.42604       -0.04633
B          1.23220       -0.80764        0.94250
B         -1.71305       -0.75929        0.98151
B         -1.72405       -3.43282       -1.01076
B          3.98481       -0.86986        0.32462
B         -1.69042       -2.70408        0.73082
B          3.80616       -2.32834       -0.37805
B         -0.33228       -3.59842       -1.64339
B         -3.08026       -3.11780       -0.36757
B         -3.04024       -1.70313        0.31220
B         -4.47145       -0.71869       -0.07022
B         -0.23132        1.76428        0.78891
B         -1.66139        2.55331        0.32928
B         -3.11241        1.79910        0.21305
B         -4.57880        0.93019        0.19937
B         -4.42743        2.55602       -0.53145
B         -2.99343        3.34205       -0.34169
B         -1.57450        4.12506       -0.48761
B         -0.18474        3.33259        0.21409
B         -0.14428        4.64487       -0.68414
B          2.64009        3.20804       -0.19913
B          1.25948        4.03696       -0.40987
B          2.67626        1.64767        0.53199
B          4.03225        2.41637       -0.15926
B          4.02761        0.80193        0.24155
B          1.28136        2.46561        0.34537
B          1.12990       -2.67962        0.71923
B         -3.19554        0.07379        0.63686
B          1.28530        0.78901        0.89626
B         -4.49765       -2.35752       -0.47814
B          5.30319       -1.60553       -0.49432
B          5.43071       -0.04093        0.10840
B          5.38886        1.62343       -0.42372
B          6.45607        0.66611       -0.98486
B          6.50554       -0.81181       -0.93763
B         -1.67619        0.87216        0.70083
B         -0.26257       -3.19282        1.55223
B         -0.30247       -1.65426        1.26186
B         -5.68898       -1.46325       -0.77199
B         -5.82230        0.08992       -0.79061
B         -5.55842        1.62032       -0.87378
B         -0.21166        0.01742        1.07728
