45
isomer_2166.log	Energy: -112419.3858502
B         -2.62613        1.74794        0.40609
B         -2.61387        3.39406        0.06296
B         -1.20513        4.22647       -0.15921
B          0.24918        3.37901        0.37410
B         -1.16896        0.84636        0.69370
B          1.70569        0.86802        0.78362
B          1.64202        4.17692       -0.29499
B         -4.08646        0.87872        0.31089
B          1.63052        2.48471        0.25913
B         -4.02278        2.58042       -0.10763
B          0.21872        4.84643       -0.42139
B          3.07222        3.32751       -0.32650
B          3.09461        1.69369        0.20336
B          4.55337        0.88927       -0.30950
B          0.26615       -1.68609        0.79062
B          1.64817       -2.36977        0.15082
B          3.10647       -1.56643        0.13063
B          4.55925       -0.72936       -0.34562
B          4.39766       -2.28174       -0.62576
B          3.09586       -3.17511       -0.47158
B          1.67187       -4.03545       -0.47822
B          0.27338       -3.27832        0.22556
B          0.25346       -4.70898       -0.63458
B         -2.58953       -3.30028       -0.08639
B         -1.17482       -4.11170       -0.34525
B         -2.61370       -1.67123        0.32981
B         -4.00435       -2.49011       -0.22076
B         -4.08032       -0.80927        0.27323
B         -1.18081       -2.49378        0.47608
B         -1.19923        2.57353        0.58914
B          3.18297        0.15506        0.56588
B         -1.16308       -0.77282        0.65757
B          4.38046        2.45139       -0.52016
B         -5.34342        1.78236       -0.63140
B         -5.33494        0.14640       -0.43392
B         -5.33084       -1.67909       -0.70863
B         -6.49881       -0.71530       -1.29107
B         -6.50445        0.83703       -1.25644
B          1.71167       -0.77758        0.74690
B         -0.25089       -1.90950        2.85833
B          0.25361        1.76315        0.86757
B          5.89192        1.75074       -0.74798
B          6.09329        0.04009       -0.85091
B          5.90181       -1.69003       -0.89537
B          0.13821       -0.58731        0.40727
