45
isomer_2168.log	Energy: -110973.3687295
B          2.61593       -1.55043        0.35120
B          2.64429       -3.17957       -0.06437
B          1.25631       -4.03786       -0.31665
B         -0.21635       -3.25301        0.26035
B          1.13760       -0.70077        0.68515
B         -1.73496       -0.80142        0.78731
B         -1.59191       -4.05671       -0.43694
B          4.05270       -0.64003        0.28781
B         -1.62101       -2.39088        0.19145
B          4.03066       -2.32270       -0.20530
B         -0.15252       -4.68261       -0.59943
B         -3.04377       -3.24437       -0.42423
B         -3.10538       -1.63666        0.17752
B         -4.58740       -0.84876       -0.29251
B         -0.36198        1.78661        0.90068
B         -1.76490        2.46154        0.29815
B         -3.20201        1.62207        0.24917
B         -4.63537        0.76918       -0.25693
B         -4.51563        2.33610       -0.46885
B         -3.23651        3.25548       -0.28131
B         -1.83533        4.15216       -0.25644
B         -0.41367        3.40149        0.40667
B         -0.43574        4.86873       -0.38941
B          2.44586        3.51192        0.08277
B          1.00916        4.29676       -0.13339
B          2.51458        1.86729        0.42635
B          3.88037        2.74568       -0.09386
B          4.00266        1.04724        0.32491
B          1.06175        2.64489        0.61551
B          1.21195       -2.42027        0.50413
B         -3.23143       -0.11835        0.60817
B          1.08961        0.91772        0.72074
B         -4.37534       -2.39501       -0.57288
B          5.32717       -1.46809       -0.69934
B          5.27749        0.15678       -0.42962
B          5.22457        1.99189       -0.62326
B          6.41371        1.08554       -1.25318
B          6.45972       -0.46613       -1.28730
B         -1.78374        0.84348        0.82348
B          1.85243       -3.05146        1.53998
B         -0.25975       -1.66117        0.82486
B         -5.90572       -1.72470       -0.76249
B         -6.15188       -0.01701       -0.78868
B         -6.00549        1.71780       -0.75743
B          0.65930       -0.81236        0.32744
