45
isomer_2169.log	Energy: -113645.6011171
B          2.59018       -1.68888        0.37903
B          2.56286       -3.34393       -0.01284
B          1.14788       -4.09529       -0.17920
B         -0.30239       -3.35785        0.41174
B          1.14975       -0.86129        0.81819
B         -1.79432       -0.85669        0.78536
B         -1.71101       -4.07444       -0.35827
B          4.05262       -0.88448        0.34239
B         -1.79289       -2.51294        0.31122
B          3.93706       -2.52539       -0.22285
B         -0.26627       -4.63871       -0.51783
B         -3.12053       -3.30170       -0.29555
B         -3.19634       -1.70267        0.27649
B         -4.60292       -0.86198       -0.09097
B         -0.33151        1.73738        1.00706
B         -1.82013        2.52776        0.34786
B         -3.20955        1.70271        0.33125
B         -4.60069        0.84716       -0.09909
B         -4.52778        2.46071       -0.62679
B         -3.12911        3.27205       -0.34244
B         -1.72123        4.05015       -0.39836
B         -0.32373        3.36438        0.41790
B         -0.27940        4.59701       -0.57661
B          2.56010        3.35000       -0.02180
B          1.14738        4.08436       -0.22074
B          2.58205        1.72454        0.45995
B          3.92696        2.51603       -0.22295
B          4.05739        0.90225        0.32027
B          1.17612        2.57761        0.56761
B          1.20129       -2.54664        0.55887
B         -3.30210       -0.00445        0.63313
B          1.15430        0.87616        0.82106
B         -4.52022       -2.48873       -0.60217
B          5.22391       -1.70156       -0.66817
B          5.27957       -0.00764       -0.38721
B          5.20768        1.69619       -0.69446
B          6.30380        0.75196       -1.34112
B          6.31995       -0.76255       -1.32069
B         -1.81431        0.91181        0.93552
B          2.64230       -0.00647        0.77073
B         -0.32431       -1.71266        0.90497
B         -5.66423       -1.57538       -1.03137
B         -5.85234       -0.01657       -1.00064
B         -5.67234        1.54670       -1.04579
B         -0.34350        0.03197        0.87730
