45
isomer_2170.log	Energy: -112323.3836139
B         -2.62984       -1.64958       -0.41490
B         -2.63180       -3.29443       -0.00755
B         -1.22781       -4.12982        0.24326
B          0.25009       -3.30909       -0.32862
B         -1.16203       -0.75125       -0.74581
B          1.73285       -0.80404       -0.81818
B          1.63943       -4.07540        0.37839
B         -4.06789       -0.77015       -0.33932
B          1.65757       -2.40512       -0.23673
B         -4.01431       -2.45561        0.13259
B          0.20360       -4.72784        0.52263
B          3.07686       -3.23386        0.38657
B          3.11385       -1.61861       -0.19953
B          4.56894       -0.79635        0.29019
B          0.28780        1.75664       -0.91718
B          1.67742        2.45209       -0.29646
B          3.13136        1.64479       -0.24282
B          4.57616        0.81896        0.26748
B          4.42458        2.38467        0.49756
B          3.11824        3.27195        0.30273
B          1.70362        4.13392        0.27755
B          0.30306        3.36552       -0.40133
B          0.29252        4.80986        0.40888
B         -2.55135        3.40966       -0.08292
B         -1.13768        4.21722        0.14280
B         -2.58806        1.76676       -0.45108
B         -3.96160        2.60644        0.08062
B         -4.05078        0.92211       -0.35881
B         -1.15829        2.58122       -0.62554
B         -1.21770       -2.50899       -0.56804
B          3.20843       -0.08741       -0.61677
B         -1.14583        0.86343       -0.75823
B          4.40069       -2.35651        0.56276
B         -5.31906       -1.62454        0.63846
B         -5.29878        0.00216        0.38509
B         -5.28177        1.82201        0.59807
B         -6.44084        0.89523        1.21796
B         -6.46140       -0.65084        1.23824
B          1.73926        0.84216       -0.83765
B         -0.46084        0.25416        0.41243
B          0.28868       -1.69244       -0.88426
B          5.88768       -1.63386        0.76642
B          6.08989        0.06428        0.80643
B          5.90303        1.77077        0.78685
B         -0.46793       -2.08027       -1.21226
