45
isomer_2171.log	Energy: -113441.9685659
B         -2.45119        1.82339        0.46734
B         -2.37373        3.45136       -0.11261
B         -0.97932        4.21748       -0.27943
B          0.44103        3.42791        0.33992
B         -1.14750        0.95924        1.03455
B          1.77517        0.86144        0.72464
B          1.83406        4.13216       -0.42035
B         -3.73049        1.01832       -0.01426
B          1.84779        2.55127        0.46082
B         -3.79769        2.69109       -0.16023
B          0.45499        4.75274       -0.56066
B          3.19371        3.24733       -0.34864
B          3.21443        1.67956        0.16594
B          4.64451        0.72795        0.04576
B          0.27766       -1.65381        1.30397
B          1.55294       -2.48816        0.56635
B          3.02520       -1.74399        0.31672
B          4.41114       -0.90692       -0.21567
B          4.26536       -2.56350       -0.59848
B          2.82948       -3.27247       -0.16993
B          1.38078       -3.98017       -0.24400
B         -0.07579       -3.24225        0.39362
B          0.05025       -4.50042       -0.66204
B         -2.66148       -3.19336       -0.79591
B         -1.38481       -4.10448       -0.81101
B         -2.47452       -1.74100        0.39468
B         -3.73835       -2.13503       -0.65104
B         -3.68412       -0.64450       -0.00593
B         -1.81957       -3.42142        0.59193
B         -1.08873        2.68668        0.57193
B          3.25535       -0.02784        0.65312
B         -1.28506       -0.63242        1.02394
B          4.49842        2.36304       -0.68947
B         -5.12825        1.93551       -0.51096
B         -5.17705        0.23762       -0.07997
B         -5.16415       -1.31586       -0.68270
B         -6.36954       -0.47229       -1.00154
B         -6.24478        1.00930       -1.06420
B          1.68412       -0.78872        1.00720
B         -1.16984       -2.28421        1.41991
B          0.39925        1.88229        0.97237
B          5.51950        1.32902       -1.14771
B          5.69527       -0.21198       -1.10751
B          5.44602       -1.75496       -1.08619
B          0.24951        0.09503        0.96577
