45
isomer_2173.log	Energy: -112907.6342330
B          2.61922        1.78781       -0.43330
B          2.57260        3.43009       -0.06951
B          1.15614        4.24290        0.14402
B         -0.27637        3.41566       -0.39773
B          1.20267        0.88264       -0.73955
B         -1.73632        0.90642       -0.81548
B         -1.66666        4.19169        0.27258
B          4.06716        0.94376       -0.33292
B         -1.66227        2.52093       -0.28694
B          3.96840        2.62314        0.09800
B         -0.25574        4.83514        0.39949
B         -3.09237        3.34061        0.31074
B         -3.12248        1.71937       -0.21716
B         -4.57821        0.89645        0.29803
B         -0.19701       -1.67561       -0.87280
B         -1.64850       -2.37166       -0.17399
B         -3.10973       -1.56079       -0.14606
B         -4.55739       -0.72347        0.33275
B         -4.39975       -2.28776        0.63045
B         -3.04712       -3.17521        0.45769
B         -1.61929       -4.02985        0.46369
B         -0.22649       -3.27497       -0.25599
B         -0.16767       -4.68749        0.59344
B          2.66854       -3.25286        0.03368
B          1.27659       -4.09847        0.28971
B          2.69088       -1.59492       -0.38028
B          4.05636       -2.39430        0.18168
B          4.09689       -0.74221       -0.30150
B          1.28831       -2.46176       -0.53926
B          1.20244        2.60768       -0.61305
B         -3.20551        0.17048       -0.58186
B          1.27259       -0.67812       -0.71101
B         -4.42922        2.47895        0.52362
B          5.28009        1.85598        0.62533
B          5.30490        0.21619        0.42007
B          5.33060       -1.57607        0.68404
B          6.44270       -0.60317        1.27761
B          6.44048        0.92207        1.25724
B         -1.73615       -0.70705       -0.79043
B          0.13608       -3.50761       -1.25954
B         -0.26231        1.79787       -0.90701
B         -5.87745        1.70581        0.74535
B         -6.04610        0.05255        0.84038
B         -5.83982       -1.62965        0.88300
B         -0.31372       -0.51117       -0.93720
