45
isomer_2174.log	Energy: -113473.6407515
B         -2.49869       -1.73385       -0.55768
B         -2.34905       -3.10741        0.52127
B         -0.97921       -3.85158        0.58742
B          0.22608       -3.30468       -0.54401
B         -1.21262       -0.76092       -0.73837
B          1.72862       -0.74333       -1.06256
B          1.77072       -4.09450        0.15113
B         -3.90350       -0.88726       -0.23666
B          1.73867       -2.45358       -0.47876
B         -3.74238       -2.33959        0.47447
B          0.43500       -4.51055        0.60180
B          3.09738       -3.23795        0.07863
B          3.14340       -1.65447       -0.47763
B          4.37993       -0.70914        0.21756
B          0.26852        1.80850       -0.87657
B          1.66140        2.57657       -0.38867
B          3.10470        1.83627       -0.19810
B          4.54989        0.93284        0.00451
B          4.34547        2.56450        0.70541
B          2.96730        3.36185        0.41925
B          1.55681        4.16408        0.47801
B          0.20706        3.37481       -0.29490
B          0.13282        4.67806        0.61604
B         -2.61236        3.26716        0.03475
B         -1.27789        4.06752        0.25912
B         -2.60911        1.57209       -0.74708
B         -3.89083        2.40774        0.04282
B         -4.00904        0.84913       -0.43445
B         -1.24985        2.48076       -0.46725
B         -1.25583       -2.75605       -1.01995
B          3.21266        0.12278       -0.61165
B         -1.19996        0.86666       -1.09480
B          4.48248       -2.38646        0.40948
B         -5.13434       -1.59513        0.73171
B         -5.29231       -0.03782        0.08342
B         -5.28199        1.62184        0.41323
B         -6.34122        0.77410        1.10066
B         -6.25971       -0.68856        1.26904
B          1.71128        0.92177       -0.79548
B         -0.96958       -2.03296        0.55964
B          0.27208       -1.58414       -0.49586
B          5.59923       -1.49430        0.89197
B          5.73224        0.08702        1.00005
B          5.47152        1.60376        1.12220
B          0.27423        0.02444       -1.25317
