45
isomer_2175.log	Energy: -111834.7841540
B          2.60428        1.77998       -0.45263
B          2.58666        3.41355       -0.05420
B          1.17544        4.23207        0.20127
B         -0.27751        3.39693       -0.35471
B          1.14967        0.88247       -0.76487
B         -1.72538        0.89506       -0.84302
B         -1.67093        4.16599        0.34619
B          4.06850        0.91420       -0.39234
B         -1.65473        2.49347       -0.26466
B          3.99955        2.60057        0.08350
B         -0.24988        4.83685        0.48963
B         -3.09752        3.31000        0.35454
B         -3.11535        1.69486       -0.22997
B         -4.56877        0.86750        0.26108
B         -0.27548       -1.65130       -0.94155
B         -1.65216       -2.36194       -0.31987
B         -3.11362       -1.56587       -0.26705
B         -4.56791       -0.75143        0.24267
B         -4.39889       -2.31168        0.46975
B         -3.09407       -3.19387        0.28058
B         -1.66657       -4.04794        0.25279
B         -0.27398       -3.26166       -0.43042
B         -0.24482       -4.72038        0.38096
B          2.59021       -3.28207       -0.13033
B          1.17986       -4.10768        0.10645
B          2.60609       -1.63984       -0.49151
B          4.00223       -2.47093        0.02584
B          4.06940       -0.77411       -0.41153
B          1.17600       -2.46302       -0.65994
B          1.17331        2.60526       -0.60231
B         -3.19887        0.16895       -0.64377
B          1.15053       -0.73701       -0.78328
B         -4.40140        2.42235        0.52358
B          5.32550        1.79088        0.57504
B          5.32290        0.16248        0.32260
B          5.32733       -1.67123        0.53568
B          6.49366       -0.72268        1.14578
B          6.49284        0.82994        1.16344
B         -1.72451       -0.75087       -0.86173
B          0.75881       -1.98298        1.57481
B         -0.27731        1.79860       -0.90232
B         -5.90908        1.70808        0.73344
B         -6.10306       -0.00590        0.77946
B         -5.90435       -1.73572        0.76488
B         -0.08667       -0.75991       -0.81193
