45
isomer_2176.log	Energy: -113323.0791341
B          2.52404        1.79945       -0.61110
B          2.39553        3.45419       -0.22179
B          0.97852        4.24674       -0.21071
B         -0.39092        3.38301       -0.76814
B          1.20126        0.86319       -1.09406
B         -1.71296        0.76900       -0.85374
B         -1.80856        4.14922       -0.05454
B          3.93678        1.07340       -0.12018
B         -1.81630        2.47791       -0.69829
B          3.69199        2.69446        0.26970
B         -0.43108        4.80403       -0.01899
B         -3.12362        3.26024        0.04901
B         -3.16402        1.63031       -0.27780
B         -4.52962        0.72683        0.15495
B         -0.20026       -1.84322       -1.33024
B         -1.46185       -2.47243       -0.21647
B         -2.85470       -1.72267        0.11916
B         -4.25073       -0.86481        0.60366
B         -3.93717       -2.39341        1.29899
B         -2.57776       -3.19894        0.78041
B         -1.22537       -4.06267        0.54369
B         -0.33345       -3.58782       -0.84651
B          0.14752       -4.65034        0.31673
B          2.68406       -3.14305       -0.14546
B          1.33368       -4.03312       -0.48375
B          2.64340       -1.50836       -0.50904
B          3.83530       -2.23408        0.34100
B          3.87459       -0.56482        0.01271
B          1.54986       -2.45834       -1.29644
B          1.12503        2.58989       -0.83397
B         -3.19321       -0.08918       -0.48139
B          1.30715       -0.71359       -1.06264
B         -4.39599        2.42712        0.61589
B          4.87749        1.99206        1.04774
B          4.46610        0.33463        1.25836
B          4.86598       -1.30904        1.26523
B          5.69430       -0.39571        2.10521
B          5.77237        1.11432        1.91430
B         -1.62368       -0.88318       -0.87014
B         -0.20144       -0.06037       -1.10682
B         -0.35722        1.75968       -1.17906
B         -5.33536        1.48329        1.32815
B         -5.43197       -0.04086        1.55764
B         -5.08974       -1.53818        1.78439
B          0.54203       -3.26476       -2.07565
