45
isomer_2177.log	Energy: -113374.2671252
B         -2.64332       -1.71918       -0.77667
B         -2.61912       -3.24636        0.49221
B         -1.28061       -4.02268        0.63823
B          0.13527       -3.32937       -0.18477
B         -1.34115       -0.58046       -1.24597
B          1.60994       -0.82453       -0.96243
B          1.51720       -4.05978        0.44482
B         -3.85975       -0.78018       -0.20066
B          1.59545       -2.53816       -0.57471
B         -3.79253       -2.30119        0.42621
B          0.16403       -4.60732        0.78292
B          2.88715       -3.24658        0.25958
B          3.01274       -1.73068       -0.30224
B          4.40991       -0.86687        0.19466
B          0.38028        1.89398       -0.99113
B          1.79291        2.55792       -0.42100
B          3.15820        1.69045       -0.22267
B          4.58141        0.77022        0.01226
B          4.41472        2.38924        0.70024
B          3.12694        3.27374        0.33261
B          1.78343        4.16032        0.39851
B          0.39212        3.44743       -0.40575
B          0.39538        4.73853        0.54599
B         -2.41897        3.44755        0.07241
B         -1.04565        4.19745        0.24883
B         -2.47411        1.74030       -0.58435
B         -3.71881        2.60403        0.19134
B         -3.85047        1.00920       -0.23494
B         -1.10547        2.65577       -0.54919
B         -1.42065       -2.87242       -0.57515
B          3.21749       -0.03356       -0.62106
B         -1.13243        1.00031       -1.04704
B          4.28268       -2.50658        0.66136
B         -5.08080       -1.43457        0.84564
B         -5.08472        0.16541        0.37939
B         -5.04305        1.82501        0.69705
B         -6.07914        0.97460        1.44112
B         -6.09571       -0.50119        1.51889
B          1.71336        0.84038       -0.76602
B         -1.42684       -1.96738       -1.89569
B          0.13389       -1.84721       -1.17759
B          5.43832       -1.66894        1.13673
B          5.65811       -0.12598        1.15408
B          5.46755        1.40419        1.19119
B          0.24479        0.02515       -1.02722
