45
isomer_2178.log	Energy: -113595.0710244
B         -2.26120       -1.66451       -0.38781
B         -2.46757       -3.34536       -0.35965
B         -1.20975       -4.23036       -0.62618
B          0.22599       -3.40377       -0.92924
B         -0.05857       -0.01889       -0.50992
B          1.52305       -0.83767       -0.58812
B          1.53720       -4.24822       -0.14231
B         -3.35524       -0.85054        0.52177
B          1.58547       -2.55681       -0.52560
B         -3.65019       -2.45488        0.29548
B          0.16592       -4.87907       -0.35550
B          2.86252       -3.36331        0.22065
B          2.88660       -1.71907        0.02566
B          4.22156       -0.85956        0.59123
B          0.28903        1.74714       -1.30494
B          1.63464        2.51703       -0.56490
B          2.96304        1.69117       -0.07905
B          4.30352        0.80481        0.44937
B          4.18247        2.48303        0.85190
B          2.94969        3.31874        0.15351
B          1.63246        4.21812       -0.10735
B          0.31673        3.46423       -0.96773
B          0.25012        4.87141       -0.22536
B         -2.42102        3.34392       -0.33747
B         -1.14188        4.23023       -0.51498
B         -2.31730        1.64169       -0.53699
B         -3.61908        2.47778        0.27417
B         -3.30195        0.86740        0.53021
B         -1.20734        2.62256       -1.25272
B         -1.26235       -2.58263       -1.31318
B          2.99179       -0.00847       -0.26409
B         -1.16227        0.83459       -1.59200
B          4.10625       -2.53707        0.94544
B         -4.74663       -1.64493        1.13912
B         -4.44582        0.03913        1.46123
B         -4.70468        1.71917        1.14214
B         -5.82306        0.81175        1.80129
B         -5.83557       -0.68943        1.80001
B          1.45566        0.84210       -0.57542
B         -1.79803        0.01870       -0.08168
B          0.27077       -1.71303       -1.22475
B          5.14928       -1.60641        1.60319
B          5.34144       -0.03165        1.60022
B          5.18138        1.53137        1.53264
B         -1.23706       -0.85045       -1.57231
