45
isomer_2179.log	Energy: -113665.4635695
B         -2.58370       -1.73772       -0.55050
B         -2.53002       -3.35376       -0.01538
B         -1.13367       -4.11690        0.06928
B          0.31738       -3.40053       -0.67370
B          0.36303       -0.00007       -1.13112
B          1.79339       -0.88552       -0.82651
B          1.73043       -4.11193        0.19287
B         -3.99653       -0.88482       -0.20192
B          1.80558       -2.56543       -0.46473
B         -3.87117       -2.51861        0.26961
B          0.28599       -4.61946        0.36146
B          3.10817       -3.32056        0.23340
B          3.19713       -1.69869       -0.35640
B          4.54040       -0.86500        0.26023
B          0.34231        1.74378       -1.09660
B          1.80310        2.56602       -0.46429
B          3.19282        1.69840       -0.35092
B          4.53750        0.86606        0.26320
B          4.40469        2.49174        0.74419
B          3.10591        3.32158        0.23290
B          1.72717        4.11221        0.19262
B          0.31560        3.40088       -0.67499
B          0.28225        4.61937        0.36098
B         -2.53183        3.35320       -0.01279
B         -1.13693        4.11718        0.06931
B         -2.58540        1.73740       -0.55107
B         -3.87234        2.51683        0.27196
B         -3.99665        0.88397       -0.19997
B         -1.14290        2.53366       -0.55971
B         -1.14080       -2.53233       -0.55789
B          3.28453        0.00028       -0.56784
B         -1.15264        0.86187       -0.87156
B          4.40622       -2.49007        0.74375
B         -5.12236       -1.69930        0.83429
B         -5.24739       -0.00153        0.49600
B         -5.12252        1.69595        0.83732
B         -6.12826        0.75545        1.59997
B         -6.12775       -0.76058        1.59915
B          1.79085        0.88464       -0.82482
B         -2.63415       -0.00014       -0.76890
B          0.34450       -1.74274       -1.09251
B          5.45447       -1.56344        1.35221
B          5.61985        0.00128        1.34338
B          5.45491        1.56624        1.35118
B         -1.15117       -0.85887       -0.86515
