45
isomer_0218.log	Energy: -113675.8790495
B          2.50988        1.75969       -0.48997
B          2.42803        3.33400        0.04038
B          1.04837        4.15660        0.12513
B         -0.35046        3.38412       -0.51193
B          1.12983        0.84827       -1.04339
B         -1.78709        0.83081       -0.91319
B         -1.74747        4.14377        0.24860
B          3.95654        0.90960       -0.21682
B         -1.80161        2.53261       -0.48693
B          3.81082        2.53657        0.29117
B         -0.34069        4.74470        0.35540
B         -3.09149        3.28026        0.26794
B         -3.17327        1.68055       -0.26022
B         -4.53234        0.79818        0.23693
B         -0.31250       -1.82996       -1.08488
B         -1.72457       -2.55040       -0.42970
B         -3.12942       -1.73295       -0.22147
B         -4.54789       -0.89365        0.14300
B         -4.32744       -2.49915        0.76915
B         -3.00893       -3.33977        0.27930
B         -1.64255       -4.16928        0.25951
B         -0.26916       -3.40206       -0.53580
B         -0.22032       -4.74721        0.35578
B          2.51347       -3.30403        0.03826
B          1.15630       -4.14888        0.11140
B          2.56340       -1.73156       -0.53079
B          3.86957       -2.48522        0.27658
B          3.98346       -0.84564       -0.22411
B          1.18577       -2.57752       -0.78777
B          1.11961        2.58956       -0.76405
B         -3.29380       -0.01576       -0.61023
B          1.17032       -0.85068       -1.06926
B         -4.40688        2.44438        0.74970
B          5.06212        1.73836        0.86252
B          5.19585        0.04405        0.52179
B          5.10432       -1.65178        0.84579
B          6.10572       -0.70674        1.60436
B          6.08593        0.81389        1.61081
B         -1.71755       -0.84305       -0.78875
B          2.60914        0.01577       -0.74695
B         -0.36877        1.82517       -1.11529
B         -5.47441        1.51892        1.30008
B         -5.62145       -0.03300        1.30241
B         -5.37464       -1.56921        1.33589
B         -0.34373       -0.00234       -1.10038
