45
isomer_2181.log	Energy: -110507.0599653
B         -2.59523       -1.66826       -0.45499
B         -2.58837       -3.30395       -0.06503
B         -1.18259       -4.13288        0.18691
B          0.27601       -3.30427       -0.36402
B         -1.13470       -0.77856       -0.76185
B          1.74025       -0.80929       -0.83863
B          1.66406       -4.08593        0.33358
B         -4.05387       -0.79337       -0.39094
B          1.65898       -2.41019       -0.26860
B         -3.99605       -2.48259        0.07619
B          0.23864       -4.74833        0.47283
B          3.09614       -3.23921        0.34708
B          3.12471       -1.62122       -0.22905
B          4.58317       -0.80581        0.26701
B          0.30686        1.74684       -0.92468
B          1.68777        2.44536       -0.29864
B          3.14404        1.63961       -0.24922
B          4.59277        0.81317        0.25700
B          4.43370        2.37327        0.49208
B          3.13470        3.26483        0.30684
B          1.71276        4.12823        0.28276
B          0.31548        3.35452       -0.40522
B          0.29530        4.80916        0.41370
B         -2.54868        3.39185       -0.10645
B         -1.13315        4.20711        0.13531
B         -2.57496        1.75166       -0.47614
B         -3.96598        2.58905        0.04481
B         -4.04386        0.89498       -0.40139
B         -1.13949        2.56645       -0.63959
B         -1.16954       -2.50197       -0.60823
B          3.21829       -0.09376       -0.63489
B         -1.12510        0.84098       -0.77187
B          4.40563       -2.36089        0.52136
B         -5.31701       -1.66692        0.57125
B         -5.30377       -0.03728        0.32725
B         -5.29649        1.79529        0.54983
B         -6.46923        0.85114        1.15444
B         -6.47844       -0.70153        1.16404
B          1.75001        0.83667       -0.84881
B         -1.31485        0.09642        1.29116
B          0.28641       -1.70316       -0.90334
B          5.91778       -1.65746        0.73568
B          6.12279        0.05497        0.79068
B          5.93526        1.78608        0.78497
B         -0.21013       -1.33081       -0.86521
