45
isomer_2183.log	Energy: -110838.4351161
B          2.53209        1.83852       -0.42284
B          2.48075        3.48107       -0.06649
B          1.05247        4.27897        0.15753
B         -0.38016        3.40262       -0.38762
B          1.09705        0.90599       -0.72275
B         -1.77703        0.86217       -0.82242
B         -1.79321        4.16275        0.28307
B          4.01175        1.00242       -0.32961
B         -1.74088        2.47583       -0.28465
B          3.90748        2.69874        0.10240
B         -0.38615        4.86381        0.41979
B         -3.20353        3.28040        0.30278
B         -3.18652        1.65087       -0.24033
B         -4.62800        0.80891        0.26099
B         -0.27896       -1.65797       -0.84506
B         -1.64693       -2.37849       -0.21558
B         -3.12342       -1.60914       -0.19395
B         -4.59667       -0.80966        0.28402
B         -4.40025       -2.36015        0.55218
B         -3.07768       -3.22201        0.39529
B         -1.63427       -4.04934        0.39990
B         -0.25131       -3.25449       -0.29291
B         -0.20122       -4.69128        0.55573
B          2.61031       -3.21305        0.02875
B          1.21385       -4.05891        0.27616
B          2.59826       -1.58054       -0.37420
B          4.00562       -2.37162        0.17454
B          4.04442       -0.68551       -0.30560
B          1.18521       -2.43465       -0.53206
B          1.08714        2.63249       -0.60416
B         -3.23818        0.11361       -0.61555
B          1.12839       -0.71313       -0.69972
B         -4.49185        2.37283        0.48485
B          5.24446        1.92706        0.62427
B          5.27435        0.29301        0.41356
B          5.31145       -1.53427        0.67352
B          6.45497       -0.54861        1.26775
B          6.42493        1.00367        1.24567
B         -1.74518       -0.78338       -0.79901
B          1.92331       -3.01091       -1.12780
B         -0.34571        1.79116       -0.89414
B         -5.98749        1.63572        0.70178
B         -6.14969       -0.07990        0.79020
B         -5.91851       -1.80546        0.82136
B          0.59454       -0.63013       -0.43962
