45
isomer_2186.log	Energy: -113675.8866480
B          2.56284        1.73094       -0.53051
B          2.51293        3.30401        0.03694
B          1.15586        4.14913        0.10930
B         -0.26951        3.40295       -0.53871
B          1.16989        0.85087       -1.06865
B         -1.71827        0.84346       -0.78951
B         -1.64271        4.16957        0.25867
B          3.98377        0.84580       -0.22431
B         -1.72501        2.55113       -0.43111
B          3.86918        2.48552        0.27587
B         -0.22063        4.74787        0.35354
B         -3.00904        3.33991        0.27894
B         -3.12920        1.73284       -0.22088
B         -4.54678        0.89332        0.14591
B         -0.36863       -1.82535       -1.11682
B         -1.80147       -2.53261       -0.48818
B         -3.17290       -1.68057       -0.25945
B         -4.53236       -0.79853        0.23669
B         -4.40640       -2.44475        0.74936
B         -3.09124       -3.28085        0.26627
B         -1.74724       -4.14441        0.24650
B         -0.35025       -3.38477       -0.51419
B         -0.34064       -4.74585        0.35228
B          2.42832       -3.33454        0.03972
B          1.04845       -4.15726        0.12297
B          2.50962       -1.75961       -0.48887
B          3.81018       -2.53680        0.29259
B          3.95674       -0.91005       -0.21574
B          1.11993       -2.58995       -0.76554
B          1.18540        2.57776       -0.78903
B         -3.29377        0.01576       -0.60928
B          1.13019       -0.84861       -1.04263
B         -4.32694        2.49884        0.77073
B          5.10390        1.65237        0.84586
B          5.19571       -0.04371        0.52280
B          5.06100       -1.73812        0.86442
B          6.08418       -0.81322        1.61313
B          6.10410        0.70744        1.60630
B         -1.78567       -0.83036       -0.91056
B          2.60975       -0.01599       -0.74592
B         -0.31321        1.83095       -1.08797
B         -5.37431        1.56911        1.33787
B         -5.62021        0.03277        1.30433
B         -5.47282       -1.51910        1.30152
B         -0.34270        0.00269       -1.09464
