45
isomer_2188.log	Energy: -113240.8572812
B          2.61759       -1.60784        0.92313
B          2.64828       -3.13186       -0.19572
B          1.34669       -3.87299       -0.62453
B         -0.13898       -3.07833       -0.17028
B          1.03247       -0.56373        0.63599
B         -1.49190       -0.73924        0.87573
B         -1.48214       -4.05670       -0.53514
B          3.95409       -0.69804        0.44828
B         -1.53160       -2.33345        0.25551
B          3.90890       -2.24723       -0.07396
B         -0.06352       -4.55145       -0.79879
B         -2.86758       -3.23700       -0.32169
B         -3.06189       -1.76600        0.34685
B         -4.43248       -0.88352       -0.04919
B         -0.34709        1.86905        0.97768
B         -1.82573        2.56836        0.51967
B         -3.18281        1.68106        0.35643
B         -4.59391        0.73909        0.13478
B         -4.54021        2.37846       -0.46470
B         -3.18918        3.23120       -0.20658
B         -1.80944        4.08506       -0.39861
B         -0.40350        3.47862        0.36296
B         -0.42841        4.66577       -0.69473
B          2.38077        3.33458       -0.35465
B          0.99883        4.12048       -0.48379
B          2.46405        1.75008        0.36726
B          3.74669        2.53380       -0.34780
B          3.88055        1.01506        0.27507
B          1.07347        2.64333        0.40551
B          1.30601       -2.16757       -0.10499
B         -3.16069       -0.02363        0.68569
B          1.00271        1.01920        0.78126
B         -4.33820       -2.51988       -0.51439
B          5.26098       -1.44412       -0.38493
B          5.26715        0.19581       -0.01823
B          5.15851        1.78047       -0.62607
B          6.31658        0.91756       -1.09932
B          6.35966       -0.55722       -1.01426
B         -1.71647        0.86109        0.86776
B          1.28067       -1.88841        1.70382
B         -0.22726       -1.77172        1.43206
B         -5.56601       -1.67651       -0.87488
B         -5.78845       -0.15760       -0.85297
B         -5.62264        1.40383       -0.88723
B         -0.19459       -1.29791       -0.25800
