45
isomer_2189.log	Energy: -112775.2433488
B         -2.67259       -1.48426       -0.51726
B         -2.66410       -3.13572       -0.18004
B         -1.26659       -4.00685        0.04530
B          0.22812       -3.22101       -0.46586
B         -1.04085       -0.57957       -0.83581
B          1.76539       -0.76052       -0.88958
B          1.56963       -4.05433        0.21776
B         -4.03342       -0.57572       -0.44033
B          1.63535       -2.38855       -0.34851
B         -4.06147       -2.26713       -0.01376
B          0.11252       -4.64541        0.32686
B          3.01357       -3.27566        0.25728
B          3.11774       -1.64746       -0.28354
B          4.59380       -0.88416        0.23260
B          0.42522        1.81549       -0.90848
B          1.82155        2.46694       -0.25751
B          3.24126        1.61626       -0.22484
B          4.64828        0.73415        0.26007
B          4.55625        2.30419        0.55154
B          3.25930        3.22405        0.37636
B          1.87491        4.11289        0.36952
B          0.47115        3.40495       -0.34023
B          0.47395        4.79536        0.50205
B         -2.37657        3.50152       -0.04677
B         -0.94968        4.26292        0.21025
B         -2.45516        1.87535       -0.46834
B         -3.79870        2.73026        0.07538
B         -3.94516        1.09213       -0.40536
B         -0.99647        2.66225       -0.60086
B         -1.18759       -2.36395       -0.69111
B          3.26102       -0.09285       -0.65096
B         -1.01484        0.96299       -0.79394
B          4.38972       -2.46291        0.46441
B         -5.32193       -1.43537        0.48463
B         -5.23459        0.20470        0.28684
B         -5.14783        1.98157        0.55415
B         -6.32727        1.08676        1.11610
B         -6.43240       -0.43559        1.09627
B          1.82849        0.87800       -0.85661
B         -1.83703       -3.34408        1.30537
B          0.31187       -1.58537       -0.97968
B          5.85810       -1.74482        0.68244
B          6.09003       -0.09640        0.76517
B          5.97186        1.56753        0.80225
B         -1.75486       -0.79258        0.21676
