45
isomer_0219.log	Energy: -112304.5488400
B         -2.58823        1.72774        0.42996
B         -2.57147        3.36922        0.06546
B         -1.16043        4.19508       -0.16628
B          0.29126        3.35094        0.37928
B         -1.13362        0.82628        0.73055
B          1.74100        0.84179        0.82271
B          1.68670        4.13652       -0.29890
B         -4.05069        0.86107        0.34479
B          1.67042        2.45171        0.27717
B         -3.98231        2.55702       -0.09577
B          0.26523        4.80795       -0.43526
B          3.11475        3.28314       -0.31810
B          3.13253        1.65630        0.23299
B          4.58965        0.84157       -0.26809
B          0.29494       -1.70834        0.86167
B          1.67575       -2.40381        0.23203
B          3.13611       -1.60450        0.20267
B          4.59143       -0.77740       -0.28314
B          4.42611       -2.33288       -0.54321
B          3.12190       -3.22086       -0.37857
B          1.69572       -4.07758       -0.37526
B          0.29857       -3.30780        0.31738
B          0.27573       -4.74948       -0.52410
B         -2.56412       -3.32653        0.00322
B         -1.15127       -4.14485       -0.24381
B         -2.58448       -1.69216        0.39817
B         -3.97674       -2.51458       -0.14292
B         -4.04884       -0.82727        0.32909
B         -1.15382       -2.51638        0.55640
B         -1.15938        2.55201        0.60351
B          3.21664        0.12230        0.61557
B         -1.13184       -0.79324        0.71550
B          4.42091        2.40125       -0.49920
B         -5.30455        1.75557       -0.61028
B         -5.30041        0.12230       -0.39152
B         -5.30075       -1.70661       -0.64246
B         -6.46575       -0.74750       -1.23842
B         -6.46746        0.80515       -1.22399
B          1.74281       -0.80416        0.80741
B         -0.70676        0.52215       -0.32283
B          0.29115        1.74163        0.89374
B          5.93077        1.69385       -0.71656
B          6.12786       -0.01850       -0.79705
B          5.93199       -1.74856       -0.81917
B         -0.86702       -1.59956        1.51564
