45
isomer_2191.log	Energy: -113478.6816179
B         -2.52925        1.65132        0.57179
B         -2.49743        3.31245       -0.04841
B         -1.12489        4.09517       -0.26910
B          0.31164        3.38724        0.35732
B         -1.16130        0.90129        1.02397
B          1.77782        0.90121        0.93942
B          1.69147        4.14715       -0.41801
B         -3.94301        0.91879        0.29015
B          1.75393        2.55760        0.43352
B         -3.83970        2.50075       -0.10099
B          0.28389        4.69321       -0.57138
B          3.06433        3.29688       -0.36288
B          3.14947        1.75759        0.21976
B          4.49476        0.79829       -0.21943
B          0.18424       -1.58778        0.38718
B          1.66358       -2.46977        0.36363
B          3.11959       -1.69590        0.39924
B          4.58321       -0.83759        0.16702
B          4.39673       -2.46034       -0.43626
B          3.03236       -3.30506       -0.05508
B          1.65901       -4.12769       -0.12085
B          0.14364       -3.31243        0.57599
B          0.30848       -4.54507       -0.53628
B         -2.47826       -3.12685       -0.42656
B         -1.11488       -3.88548       -0.48320
B         -2.56941       -1.70193        0.61079
B         -3.83778       -2.31063       -0.39191
B         -3.94498       -0.82330        0.24968
B         -1.31559       -2.73309        1.06087
B         -1.17195        2.60371        0.65094
B          3.25765        0.06023        0.67024
B         -1.27575       -0.73604        0.74787
B          4.42013        2.45972       -0.73363
B         -5.22825        1.72172       -0.50065
B         -5.29217        0.07148       -0.09564
B         -5.22215       -1.52461       -0.65674
B         -6.32315       -0.60488       -1.21565
B         -6.32466        0.87023       -1.13302
B          1.67222       -0.74887        0.70971
B         -1.11465       -2.05769       -0.55408
B          0.34477        1.86445        1.04514
B          5.56139        1.52633       -1.14083
B          5.73215       -0.01898       -1.05456
B          5.45463       -1.53918       -0.99582
B          0.24815        0.05636        1.04674
