45
isomer_2192.log	Energy: -113369.6303718
B         -2.56556        1.57745        0.69648
B         -2.51576        3.22559        0.19141
B         -1.18803        4.09680       -0.05985
B          0.29246        3.37637        0.44055
B         -1.06397        0.82485        1.20307
B          1.67375        0.84067        0.59763
B          1.62893        4.14427       -0.39476
B         -4.00164        0.78445        0.39904
B          1.73799        2.55934        0.35257
B         -3.86364        2.35835       -0.08150
B          0.20623        4.70346       -0.43672
B          3.03986        3.30309       -0.40521
B          3.11803        1.70726        0.11257
B          4.54389        0.82688       -0.13541
B          0.21964       -1.73315        1.11088
B          1.69679       -2.53150        0.54663
B          3.09687       -1.71467        0.31820
B          4.49121       -0.84359       -0.13037
B          4.38207       -2.50328       -0.58759
B          3.00297       -3.29152       -0.11537
B          1.57757       -4.12391       -0.16420
B          0.20253       -3.35931        0.48479
B          0.18031       -4.69440       -0.38727
B         -2.61051       -3.27035       -0.09906
B         -1.23656       -4.08404       -0.18842
B         -2.62535       -1.58436        0.25516
B         -3.97569       -2.41957       -0.34330
B         -4.05990       -0.86363        0.29969
B         -1.27053       -2.50119        0.45382
B         -1.19450        2.55437        0.77634
B          3.21680        0.01691        0.56406
B         -1.18567       -0.73321        0.55027
B          4.34427        2.45099       -0.82703
B         -5.13120        1.70150       -0.68951
B         -5.21416        0.02131       -0.51083
B         -5.20944       -1.64254       -0.88074
B         -6.29568       -0.65277       -1.48348
B         -6.26278        0.83610       -1.40091
B          1.60921       -0.76799        0.80681
B          0.21060        0.07799        0.05932
B          0.34845        1.76659        0.96877
B          5.40431        1.46556       -1.30539
B          5.62828       -0.07051       -1.20342
B          5.46846       -1.63007       -1.13303
B          0.14908       -0.20460        1.77531
