45
isomer_2193.log	Energy: -113427.8823205
B         -2.44542        1.86231        0.70723
B         -2.37463        3.47859        0.10953
B         -0.99076        4.28263        0.03542
B          0.43551        3.49641        0.59321
B         -1.06955        1.03109        1.24835
B          1.69662        0.85123        0.80090
B          1.80609        4.19105       -0.21513
B         -3.74999        1.01885        0.07054
B          1.80816        2.55619        0.50462
B         -3.71296        2.70656       -0.19814
B          0.42460        4.83673       -0.27689
B          3.13193        3.27096       -0.27806
B          3.12523        1.67731        0.11994
B          4.49398        0.75732       -0.27685
B          0.21169       -1.71844        0.98297
B          1.51858       -2.46822        0.37496
B          2.97240       -1.70273        0.10520
B          4.46960       -0.90781       -0.16491
B          4.19973       -2.50645       -0.76543
B          2.87096       -3.27807       -0.28672
B          1.52669       -4.15797       -0.16062
B          0.08966       -3.38745        0.47250
B          0.19840       -4.82782       -0.27519
B         -2.43061       -3.30457       -0.37744
B         -1.24858       -4.29297       -0.23689
B         -2.36781       -1.66665        0.59671
B         -3.48569       -2.22787       -0.57690
B         -3.71121       -0.73766        0.06765
B         -1.54579       -3.25188        1.03626
B         -1.05507        2.71411        0.84003
B          3.11289       -0.02268        0.44292
B         -1.00754       -0.58723        1.42149
B          4.43723        2.41704       -0.74956
B         -4.82119        1.87520       -0.94239
B         -5.04670        0.18048       -0.56231
B         -4.80520       -1.41289       -1.10237
B         -5.83633       -0.56403       -1.81380
B         -5.69891        0.92471       -1.84835
B          1.51752       -0.78420        0.69725
B         -1.22472       -2.03756        1.87935
B          0.42398        1.82812        1.09609
B          5.53012        1.46731       -1.24150
B          5.64202       -0.09604       -1.24025
B          5.36079       -1.62613       -1.26133
B         -2.37570        0.14312        0.64789
