45
isomer_2194.log	Energy: -112560.5504406
B          2.63111        1.80791       -0.44674
B          2.60355        3.43801       -0.06337
B          1.20817        4.24392        0.17687
B         -0.24185        3.43449       -0.35912
B          1.20978        0.93215       -0.74901
B         -1.75685        0.92537       -0.83281
B         -1.62053        4.20306        0.32740
B          4.06724        0.96399       -0.37641
B         -1.64629        2.54491       -0.26553
B          3.98322        2.62903        0.07741
B         -0.19726        4.82695        0.45290
B         -3.05898        3.37352        0.34282
B         -3.12119        1.76906       -0.22367
B         -4.60035        0.95546        0.25967
B         -0.44405       -1.66460       -0.91872
B         -1.80881       -2.37052       -0.27753
B         -3.20896       -1.53698       -0.24231
B         -4.62441       -0.67077        0.24560
B         -4.53320       -2.25046        0.49652
B         -3.21096       -3.17382        0.31156
B         -1.81793       -4.08950        0.31995
B         -0.45269       -3.32341       -0.36094
B         -0.45454       -4.78980        0.51711
B          2.73269       -3.22726        0.00562
B          1.03008       -4.31835        0.34591
B          2.67126       -1.54047       -0.43060
B          4.05814       -2.34569        0.11323
B          4.09282       -0.70282       -0.36853
B          1.14437       -2.42076       -0.59920
B          1.21940        2.63034       -0.59903
B         -3.24638        0.21311       -0.62747
B          1.26728       -0.58908       -0.74318
B         -4.42320        2.53773        0.53260
B          5.29896        1.85339        0.57331
B          5.31427        0.21975        0.34440
B          5.33996       -1.55058        0.58993
B          6.45297       -0.60817        1.17373
B          6.46353        0.90934        1.16947
B         -1.81251       -0.74071       -0.84215
B          1.47171       -3.75258       -0.25697
B         -0.24578        1.83235       -0.89456
B         -5.86744        1.77647        0.71522
B         -6.07924        0.13765        0.75541
B         -5.92820       -1.53308        0.74628
B          0.14111       -0.95860       -0.11510
