45
isomer_2195.log	Energy: -112097.4419747
B          2.60517        1.78145       -0.44497
B          2.55553        3.42020       -0.07721
B          1.14233        4.22881        0.15963
B         -0.30729        3.40034       -0.37558
B          1.16247        0.86677       -0.73818
B         -1.78163        0.90006       -0.82128
B         -1.69741        4.17338        0.31388
B          4.08944        0.94916       -0.36121
B         -1.69529        2.50458       -0.26694
B          3.97436        2.62592        0.07424
B         -0.27584        4.82508        0.43670
B         -3.12698        3.32707        0.34837
B         -3.16118        1.70740       -0.20732
B         -4.62072        0.88405        0.30041
B         -0.23900       -1.64616       -0.85583
B         -1.70849       -2.37414       -0.22980
B         -3.17164       -1.56272       -0.18994
B         -4.61278       -0.73365        0.30961
B         -4.45081       -2.30251        0.57146
B         -3.12328       -3.18721        0.39001
B         -1.68709       -4.03622        0.37408
B         -0.29411       -3.28121       -0.32935
B         -0.24571       -4.69298        0.50785
B          2.69940       -3.28332        0.02663
B          1.19048       -4.11880        0.24187
B          2.74810       -1.56240       -0.39668
B          4.12366       -2.39474        0.14416
B          4.14020       -0.71988       -0.34128
B          1.18576       -2.48515       -0.56495
B          1.16448        2.59809       -0.61020
B         -3.25275        0.16863       -0.59600
B          1.19151       -0.70695       -0.70106
B         -4.45365        2.45893        0.54527
B          5.31666        1.86815        0.58777
B          5.35701        0.23188        0.37142
B          5.40351       -1.56778        0.62381
B          6.52765       -0.58502        1.21280
B          6.49848        0.94188        1.19973
B         -1.79018       -0.72065       -0.82674
B          1.74831       -2.13907        0.04546
B         -0.30508        1.78996       -0.89889
B         -5.93109        1.70772        0.76430
B         -6.11224        0.03480        0.83584
B         -5.92006       -1.66311        0.85039
B         -0.86024       -1.63062       -1.40229
