45
isomer_2196.log	Energy: -113380.1743557
B          2.60100       -1.72952        0.69251
B          2.57698       -3.22196       -0.62520
B          1.22306       -3.97433       -0.77487
B         -0.15587       -3.26296        0.09392
B          1.36759       -0.60122        1.25599
B         -1.61785       -0.81291        0.96859
B         -1.56556       -4.04639       -0.42518
B          3.86177       -0.79615        0.22085
B         -1.63097       -2.53849        0.59245
B          3.76645       -2.28524       -0.47390
B         -0.22696       -4.55059       -0.85969
B         -2.94887       -3.24263       -0.18123
B         -3.04915       -1.70975        0.34796
B         -4.41288       -0.82782       -0.21721
B         -0.34658        1.87183        0.90571
B         -1.77876        2.57183        0.41555
B         -3.15839        1.71121        0.22748
B         -4.59696        0.81383        0.03135
B         -4.43338        2.43346       -0.66046
B         -3.11916        3.30122       -0.33312
B         -1.75520        4.15811       -0.42959
B         -0.35272        3.42074        0.31587
B         -0.35284        4.72476       -0.59242
B          2.45275        3.42424       -0.09870
B          1.08837        4.16808       -0.28823
B          2.50025        1.73004        0.61059
B          3.74225        2.57961       -0.19673
B          3.87059        0.99024        0.26631
B          1.12988        2.59737        0.44036
B          1.44647       -2.96382        0.54117
B         -3.21606       -0.01005        0.63228
B          1.15866        0.98506        1.06036
B         -4.34903       -2.49439       -0.58086
B          5.12054       -1.45036       -0.77358
B          5.13924        0.14959       -0.25705
B          5.09454        1.79171       -0.62678
B          6.16283        0.93313       -1.30647
B          6.18892       -0.53783       -1.36141
B         -1.69729        0.85000        0.69849
B          1.38148       -2.03582        1.82330
B         -0.15820       -1.84561        1.14250
B         -5.51183       -1.65148       -1.04206
B         -5.71349       -0.09047       -1.07855
B         -5.49813        1.44140       -1.12477
B         -0.22750        0.03230        1.02445
