45
isomer_2197.log	Energy: -110955.7400871
B          2.57457        1.77533       -0.44816
B          2.55544        3.41537       -0.07735
B          1.14333        4.23754        0.16093
B         -0.30799        3.39261       -0.38439
B          1.12102        0.87214       -0.74873
B         -1.75384        0.88231       -0.83396
B         -1.70335        4.17283        0.30012
B          4.03894        0.91124       -0.36980
B         -1.68512        2.49027       -0.28243
B          3.96827        2.60536        0.07741
B         -0.28288        4.84655        0.43565
B         -3.12966        3.31655        0.31947
B         -3.14555        1.69179       -0.23780
B         -4.59986        0.87227        0.26364
B         -0.30284       -1.66479       -0.88613
B         -1.68076       -2.36539       -0.25586
B         -3.14262       -1.56910       -0.21996
B         -4.59840       -0.74675        0.27250
B         -4.42940       -2.30288        0.52622
B         -3.12383       -3.18763        0.35506
B         -1.69598       -4.04151        0.34507
B         -0.30201       -3.26632       -0.34795
B         -0.27431       -4.71115        0.48795
B          2.56145       -3.28058       -0.04071
B          1.15082       -4.10263        0.20657
B          2.57764       -1.64466       -0.42945
B          3.97282       -2.46639        0.10516
B          4.04045       -0.77715       -0.36056
B          1.14823       -2.47111       -0.58741
B          1.14368        2.59743       -0.61514
B         -3.22755        0.15910       -0.62604
B          1.12247       -0.74743       -0.73986
B         -4.43365        2.43138        0.50031
B          5.29331        1.80457        0.58569
B          5.29188        0.17215        0.36069
B          5.29642       -1.65771        0.60463
B          6.46096       -0.69858        1.20147
B          6.45956        0.85412        1.19297
B         -1.75236       -0.76369       -0.82495
B          1.54038       -0.19971        0.24350
B         -0.30593        1.78528       -0.90500
B         -5.94158        1.72017        0.71857
B         -6.13509        0.00714        0.79298
B         -5.93576       -1.72260        0.80801
B          0.42865       -2.62574       -0.64292
