45
isomer_2198.log	Energy: -113360.4048211
B         -2.58813        1.60260        0.51035
B         -2.61315        3.27651        0.00768
B         -1.28097        4.10465       -0.17265
B          0.16121        3.34629        0.32318
B         -1.21108        0.72257        0.89341
B          1.62322        0.83988        0.58594
B          1.53423        4.18125       -0.40244
B         -3.94877        0.80743        0.19847
B          1.60826        2.53043        0.23864
B         -3.95669        2.43595       -0.07854
B          0.10125        4.74669       -0.46132
B          2.92799        3.36976       -0.36385
B          3.03868        1.75592        0.14736
B          4.51579        0.93402        0.01325
B          0.29876       -1.83868        0.96763
B          1.74368       -2.50168        0.37091
B          3.13859       -1.63165        0.35728
B          4.49695       -0.72659       -0.05166
B          4.44462       -2.37490       -0.54929
B          3.10866       -3.23585       -0.18978
B          1.75987       -4.07869       -0.37263
B          0.31790       -3.41550        0.40769
B          0.34097       -4.61527       -0.67324
B         -2.46677       -3.30224       -0.20223
B         -1.07093       -4.09595       -0.36944
B         -2.54758       -1.72301        0.54065
B         -3.80356       -2.46327       -0.32580
B         -3.92189       -0.91508        0.18607
B         -1.16315       -2.59776        0.49206
B         -1.26306        2.50385        0.70809
B          3.19446        0.06747        0.65255
B         -1.16421       -0.90930        1.06997
B          4.26833        2.53932       -0.73066
B         -5.28192        1.59791       -0.58325
B         -5.24174       -0.05916       -0.27535
B         -5.21585       -1.69905       -0.70506
B         -6.31145       -0.80900       -1.29423
B         -6.32298        0.70004       -1.25781
B          1.63746       -0.76940        0.91653
B          0.17102        0.02269        0.05050
B          0.22987        1.77090        0.91506
B          5.34848        1.59418       -1.18801
B          5.63559        0.06482       -1.08946
B          5.52301       -1.46926       -1.03758
B          0.20499       -0.28386        1.82103
