45
isomer_2199.log	Energy: -113449.7907983
B         -2.44999        1.84470        0.72106
B         -2.40752        3.44149        0.14358
B         -1.02394        4.22846       -0.02483
B          0.41398        3.46453        0.50806
B         -1.05247        0.97682        1.15699
B          1.75559        0.89874        0.81675
B          1.77491        4.15755       -0.36260
B         -3.79099        0.97815        0.13987
B          1.80476        2.55432        0.34092
B         -3.75545        2.67077       -0.09517
B          0.36528        4.76724       -0.41368
B          3.11176        3.27510       -0.44711
B          3.17181        1.72202        0.09321
B          4.53549        0.78066       -0.25194
B          0.29731       -1.55739        0.88495
B          1.61026       -2.40663        0.46785
B          3.07072       -1.67792        0.17850
B          4.56519       -0.87674        0.01564
B          4.33302       -2.52441       -0.53274
B          2.95403       -3.25056       -0.15107
B          1.58810       -4.04428       -0.08188
B          0.06872       -3.28730        0.50565
B          0.27413       -4.59823       -0.46249
B         -2.48418       -3.25944       -0.65225
B         -1.16077       -4.12817       -0.62016
B         -2.41556       -1.74004        0.52948
B         -3.64122       -2.24603       -0.58997
B         -3.76489       -0.75913        0.11831
B         -1.68777       -3.40257        0.75732
B         -1.04483        2.66242        0.81708
B          3.20792        0.03060        0.53639
B         -1.02757       -0.65102        1.27600
B          4.46833        2.40283       -0.83903
B         -4.96491        1.85402       -0.73083
B         -5.17232        0.16039       -0.34977
B         -5.03039       -1.45166       -0.87089
B         -6.06117       -0.56266       -1.54120
B         -5.91826        0.92693       -1.57551
B          1.64305       -0.72977        0.70627
B         -1.07980       -2.22873        1.52765
B          0.44111        1.80719        1.04083
B          5.59883        1.45413       -1.22066
B          5.76292       -0.11680       -1.08720
B          5.51198       -1.65508       -1.00782
B         -2.39524        0.09550        0.62643
