45
isomer_0220.log	Energy: -113468.0440755
B          2.32427        2.00194       -0.43093
B          2.10170        3.50720        0.19078
B          0.63214        4.21832        0.26170
B         -0.69543        3.36036       -0.39183
B          0.93297        0.94052       -0.89796
B         -1.87615        0.72834       -0.79940
B         -2.17099        4.02201        0.19687
B          3.77552        1.22571       -0.09353
B         -2.06983        2.40032       -0.53206
B          3.58550        2.84775        0.37091
B         -0.81614        4.71303        0.43453
B         -3.48775        3.09476        0.07938
B         -3.45161        1.51056       -0.37846
B         -4.81692        0.52451       -0.18731
B         -0.26570       -1.62698       -1.02544
B         -1.52531       -2.43453       -0.19257
B         -3.02820       -1.84467       -0.12891
B         -4.50273       -1.06201        0.23799
B         -4.21023       -2.64204        0.84355
B         -2.75064       -3.33657        0.50129
B         -1.28559       -4.03381        0.47768
B         -0.05392       -3.22684       -0.38632
B          0.16691       -4.54796        0.47666
B          2.80988       -3.07712        0.63512
B          1.52965       -3.91121        0.08530
B          2.67173       -1.50236       -0.69600
B          3.99375       -2.18493        0.21202
B          3.93677       -0.48278       -0.26494
B          1.27752       -2.39225       -1.04673
B          0.83058        2.63015       -0.47195
B         -3.34310       -0.19260       -0.66809
B          1.05996       -0.64913       -0.94969
B         -4.78968        2.19749        0.41661
B          4.93777        2.14573        0.78046
B          5.23165        0.45288        0.25038
B          5.27855       -1.23858        0.55488
B          6.22946       -0.25844        1.29070
B          6.04257        1.24929        1.40835
B         -1.72439       -0.87051       -0.87329
B          2.71713       -3.13828       -0.92788
B         -0.56472        1.69135       -0.87477
B         -5.77456        1.16734        0.94057
B         -5.85131       -0.36378        1.03652
B         -5.47707       -1.87285        1.19301
B          2.46599        0.26064       -0.65718
