45
isomer_2200.log	Energy: -111924.5554622
B         -2.58677        1.75022        0.37483
B         -2.56278        3.39443        0.02324
B         -1.14786        4.21754       -0.19423
B          0.29808        3.36452        0.35279
B         -1.13672        0.84179        0.67645
B          1.73738        0.84736        0.78468
B          1.69976        4.15088       -0.31149
B         -4.05147        0.88894        0.27478
B          1.67493        2.46169        0.25133
B         -3.97527        2.58804       -0.15216
B          0.28120        4.82790       -0.45049
B          3.12519        3.29310       -0.32942
B          3.13474        1.66196        0.20907
B          4.59205        0.84649       -0.29025
B          0.28305       -1.69835        0.79573
B          1.66515       -2.39332        0.16836
B          3.12817       -1.59850        0.15335
B          4.58879       -0.77231       -0.31792
B          4.42000       -2.32519       -0.59102
B          3.11208       -3.21023       -0.44055
B          1.68321       -4.06237       -0.45184
B          0.28466       -3.29353        0.23901
B          0.26195       -4.72853       -0.61380
B         -2.57628       -3.30063       -0.09118
B         -1.16467       -4.12152       -0.33673
B         -2.59367       -1.66931        0.31639
B         -3.98549       -2.48304       -0.23882
B         -4.05487       -0.79922        0.24593
B         -1.16652       -2.49933        0.47613
B         -1.15631        2.56853        0.56273
B          3.21187        0.12477        0.58013
B         -1.13998       -0.77757        0.64878
B          4.42954        2.40845       -0.51013
B         -5.29715        1.79486       -0.68023
B         -5.29940        0.15994       -0.47420
B         -5.30412       -1.66696       -0.73939
B         -6.46274       -0.69951       -1.33431
B         -6.45962        0.85298       -1.30778
B          1.73406       -0.79842        0.75656
B         -1.24102       -1.40200        2.98164
B          0.29001        1.75127        0.85468
B          5.93835        1.69793       -0.72461
B          6.13046       -0.01437       -0.81736
B          5.92924       -1.74357       -0.85406
B         -0.27122       -0.43582        0.52537
