45
isomer_2201.log	Energy: -113441.9570781
B          2.47375       -1.74238        0.39369
B          2.65939       -3.19437       -0.79867
B          1.38152       -4.10402       -0.81354
B          0.07409       -3.24214        0.39117
B          1.28493       -0.63301        1.02367
B         -1.68346       -0.78751        1.00492
B         -1.38394       -3.97888       -0.24564
B          3.68393       -0.64663       -0.00651
B         -1.55372       -2.48676        0.56468
B          3.73729       -2.13745       -0.65184
B         -0.05396       -4.49913       -0.66559
B         -2.83217       -3.27065       -0.16952
B         -3.02601       -1.74180        0.31595
B         -4.41463       -0.90492       -0.20954
B         -0.39814        1.88262        0.97208
B         -1.84487        2.55140        0.45315
B         -3.21138        1.67928        0.15679
B         -4.64484        0.73108        0.05004
B         -4.49765        2.36434       -0.69219
B         -3.18988        3.24698       -0.35742
B         -1.82937        4.13153       -0.42628
B         -0.43819        3.42869        0.34048
B         -0.45022        4.75264       -0.56202
B          2.37718        3.45123       -0.10901
B          0.98327        4.21768       -0.27754
B          2.45273        1.82282        0.46886
B          3.80055        2.68963       -0.15738
B          3.73034        1.01669       -0.01471
B          1.09105        2.68681        0.57426
B          1.81788       -3.42192        0.58947
B         -3.25509       -0.02549        0.65367
B          1.14845        0.95884        1.03503
B         -4.26914       -2.56128       -0.59419
B          5.16381       -1.31905       -0.68171
B          5.17652        0.23464       -0.07911
B          5.13000        1.93273       -0.50878
B          6.24664        1.00574       -1.06099
B          6.37027       -0.47601       -0.99849
B         -1.77499        0.86304        0.72567
B          1.16867       -2.28523        1.41866
B         -0.27810       -1.65374        1.30288
B         -5.45134       -1.75244       -1.07829
B         -5.69970       -0.20982       -1.09978
B         -5.52234        1.33074       -1.14260
B         -0.24910        0.09549        0.96623
