45
isomer_2202.log	Energy: -110695.0526311
B          2.64529       -1.65498        0.34281
B          2.62175       -3.28452       -0.07148
B          1.20761       -4.09516       -0.33583
B         -0.24255       -3.25994        0.22728
B          1.19388       -0.75502        0.66278
B         -1.68125       -0.75743        0.73890
B         -1.63839       -4.01685       -0.48198
B          4.11283       -0.79423        0.29190
B         -1.61627       -2.35041        0.14509
B          4.03780       -2.47563       -0.20034
B         -0.21980       -4.69168       -0.63099
B         -3.06171       -3.15539       -0.48296
B         -3.07382       -1.54595        0.11719
B         -4.52374       -0.70834       -0.36676
B         -0.22176        1.78231        0.86312
B         -1.59529        2.50419        0.24746
B         -3.05973        1.71424        0.18594
B         -4.51675        0.91033       -0.33263
B         -4.34164        2.47205       -0.54443
B         -3.03362        3.34739       -0.34584
B         -1.60291        4.19571       -0.30880
B         -0.21379        3.39755        0.36767
B         -0.17852        4.86395       -0.42949
B          2.65067        3.40997        0.06969
B          1.24363        4.24321       -0.16000
B          2.66006        1.76427        0.41491
B          4.05971        2.59503       -0.09342
B          4.12012        0.89379        0.32750
B          1.23298        2.59121        0.59037
B          1.21109       -2.47623        0.48351
B         -3.15183       -0.02382        0.54574
B          1.20087        0.86419        0.69693
B         -4.36209       -2.26119       -0.64424
B          5.36717       -1.66626       -0.68311
B          5.37057       -0.04038       -0.41486
B          5.38212        1.79528       -0.61012
B          6.54526        0.84827       -1.22863
B          6.53856       -0.70410       -1.26137
B         -1.67414        0.88822        0.77360
B         -0.40361       -1.38429        3.01402
B         -0.23666       -1.66701        0.79039
B         -5.86690       -1.53919       -0.84816
B         -6.05434        0.17588       -0.87765
B         -5.84908        1.90471       -0.84615
B         -0.98180       -1.85373        0.30245
