45
isomer_2203.log	Energy: -113151.7609623
B          2.83426       -1.28349        0.83438
B          3.00198       -2.92569        0.26513
B          1.64959       -3.80787        0.66508
B          0.22410       -3.20135        0.49993
B          1.65527       -0.27636        0.97183
B         -1.54325       -0.85213        0.89184
B         -0.92061       -3.85210       -0.68552
B          3.85674       -0.33429        0.20942
B         -1.23397       -2.41861        0.49185
B          4.18071       -1.95194        0.03499
B          0.59807       -4.11231       -0.83488
B         -2.31927       -3.29871       -0.56521
B         -2.79974       -1.91477        0.14963
B         -4.27241       -1.25290       -0.29284
B         -0.65853        1.78813        1.16785
B         -2.13132        2.42076        0.70425
B         -3.39692        1.46773        0.39895
B         -4.63053        0.37234       -0.05109
B         -4.70183        2.04019       -0.54217
B         -3.50996        3.05686       -0.04540
B         -2.25966        4.01314       -0.13977
B         -0.78748        3.40318        0.54447
B         -0.92825        4.64837       -0.41027
B          1.86508        3.51505       -0.31444
B          0.52057        4.16763       -0.27007
B          2.14265        1.77540        0.52067
B          3.18155        2.82389       -0.48664
B          3.59480        1.35634        0.09319
B          0.72362        2.58782        0.59452
B          1.48892       -2.13123        1.15189
B         -3.23424       -0.28398        0.64492
B          0.81106        1.05179        1.16673
B         -3.82647       -2.75486       -0.93420
B          5.30011       -1.01250       -0.67462
B          4.91557        0.67259       -0.51871
B          4.65133        2.23791       -0.95346
B          5.82842        1.48296       -1.58794
B          6.10393       -0.00338       -1.44470
B         -1.80800        0.73661        1.01472
B          1.95797       -3.37486       -0.77995
B          0.10193       -0.82408        0.76438
B         -5.02375       -2.05947       -1.45998
B         -5.51396       -0.60478       -1.34970
B         -5.57381        0.94280       -1.21573
B         -0.11429       -2.02980        1.77668
