45
isomer_2206.log	Energy: -113406.5976417
B          2.43541        1.82343       -0.56369
B          2.23468        3.43081        0.08553
B          0.85328        4.19723        0.20724
B         -0.56627        3.38316       -0.42974
B          1.06344        0.94352       -1.07956
B         -1.88214        0.76822       -0.89771
B         -1.95457        4.08390        0.31417
B          3.89749        1.14017       -0.32642
B         -1.94715        2.48006       -0.55144
B          3.63881        2.63053        0.29409
B         -0.59376        4.71969        0.46793
B         -3.28579        3.15105        0.27332
B         -3.32809        1.60956       -0.27289
B         -4.70333        0.59579        0.03454
B         -0.36968        0.07061       -1.20565
B         -1.62585       -2.54089       -0.55717
B         -3.05787       -1.83317       -0.24653
B         -4.39217       -0.99829        0.38598
B         -4.22479       -2.64840        0.80204
B         -2.79295       -3.34071        0.33216
B         -1.38121       -4.11675        0.30703
B         -0.08303       -3.23979       -0.45753
B          0.04854       -4.61659        0.38722
B          2.72520       -3.04062       -0.09854
B          1.37445       -3.92181        0.13004
B          2.54718       -1.32957       -0.65328
B          4.28082       -2.62764        0.03956
B          3.90215       -0.53107       -0.33181
B          1.29674       -2.36658       -0.84002
B          0.98068        2.65546       -0.57193
B         -3.34775       -0.15063       -0.61629
B          1.11518       -0.63126       -1.13947
B         -4.56240        2.23868        0.67979
B          4.99921        1.92681        0.77600
B          5.17226        0.26983        0.39347
B          5.11737       -1.48757        0.73909
B          6.12303       -0.44785        1.46673
B          6.12161        1.04102        1.42649
B         -1.78206       -0.84580       -1.07827
B          3.34523       -1.59925        0.76175
B         -0.48896        1.84414       -1.02174
B         -5.55802        1.22017        1.24233
B         -5.69450       -0.30402        1.27560
B         -5.39570       -1.85307        1.29864
B         -0.25472       -1.75251       -1.18107
