45
isomer_2207.log	Energy: -112645.3671493
B          2.48044        1.86880       -0.46154
B          2.38809        3.49618       -0.09995
B          0.99042        4.29350        0.12561
B         -0.41771        3.44602       -0.40007
B          1.03057        1.00546       -0.75272
B         -1.81728        0.84943       -0.84790
B         -1.80131        4.17253        0.28515
B          3.99038        1.03533       -0.36286
B         -1.78252        2.50992       -0.29197
B          3.78296        2.68533        0.05889
B         -0.42057        4.81397        0.39488
B         -3.18709        3.29388        0.32197
B         -3.19658        1.67848       -0.22748
B         -4.62006        0.80349        0.27699
B         -0.35759       -1.76197       -0.91077
B         -1.73651       -2.47894       -0.27814
B         -3.16640       -1.66982       -0.22271
B         -4.57561       -0.84437        0.27621
B         -4.45520       -2.43116        0.54682
B         -3.09620       -3.30769        0.33073
B         -1.70652       -4.16336        0.30196
B         -0.33713       -3.41551       -0.37339
B         -0.30513       -4.78295        0.42935
B          2.73026       -3.70271        0.13061
B          1.11421       -4.29504        0.20141
B          2.81001       -1.40237       -0.46945
B          4.24098       -2.39677        0.15010
B          4.14078       -0.61203       -0.34598
B          1.11818       -2.63150       -0.64544
B          1.03822        2.69475       -0.63430
B         -3.27120        0.06656       -0.61135
B          1.15682       -0.83502       -0.82573
B         -4.53138        2.41771        0.54546
B          5.14260        1.96078        0.60500
B          5.25185        0.31727        0.40136
B          5.35533       -1.44883        0.64765
B          6.35629       -0.43089        1.26523
B          6.31292        1.06081        1.24515
B         -1.80351       -0.85284       -0.84271
B          2.75562       -2.45918       -0.60225
B         -0.39363        1.83479       -0.91389
B         -5.87345        1.53453        0.73665
B         -5.99915       -0.05626        0.78185
B         -5.81056       -1.67461        0.78517
B          0.47534       -0.18569        0.27642
