45
isomer_2208.log	Energy: -113645.4536354
B          2.55589       -1.71417        0.42107
B          2.64736       -3.31429        0.08382
B          1.27560       -3.98251       -0.32980
B         -0.21571       -3.28385        0.17893
B          1.12810       -0.82461        0.83182
B         -1.75717       -0.83613        0.70538
B         -1.55622       -4.05022       -0.53770
B          3.98405       -0.81501        0.26724
B         -1.68206       -2.52106        0.43126
B          4.02994       -2.49669       -0.04468
B         -0.09530       -4.50289       -0.81889
B         -2.98285       -3.36565       -0.26405
B         -3.14484       -1.80475        0.27459
B         -4.61050       -0.96656        0.08378
B         -0.39926        1.82964        1.07297
B         -1.84531        2.50667        0.41704
B         -3.23265        1.64896        0.29923
B         -4.57838        0.71759       -0.17435
B         -4.51811        2.35348       -0.69495
B         -3.16442        3.20747       -0.31626
B         -1.81790        4.08366       -0.34738
B         -0.39978        3.37491        0.40904
B         -0.41926        4.70596       -0.49570
B          2.39731        3.37325       -0.14889
B          0.99206        4.15802       -0.25156
B          2.44869        1.78651        0.29356
B          3.80982        2.56759       -0.36123
B          3.90582        0.94128        0.11010
B          1.07506        2.61114        0.65253
B          1.21578       -2.57810        0.81112
B         -3.32226       -0.04159        0.67386
B          1.08002        0.87302        0.84165
B         -4.40006       -2.58599       -0.57009
B          5.32166       -1.65520       -0.47004
B          5.19794        0.06549       -0.46852
B          5.14897        1.75791       -0.77699
B          6.34903        0.82188       -1.24975
B          6.43745       -0.69895       -1.09346
B         -1.83136        0.82815        0.97615
B          2.56505        0.03943        0.64591
B         -0.37584        0.00468        1.06330
B         -5.51685       -1.67177       -1.03120
B         -5.78140       -0.14338       -1.04824
B         -5.63253        1.41673       -1.13084
B         -0.28556       -1.82006        1.08020
