45
isomer_2209.log	Energy: -112542.4252268
B         -2.63186       -1.50093       -0.47992
B         -2.67027       -3.34776       -0.08974
B         -1.20935       -4.09184        0.16878
B          0.26729       -3.27502       -0.38486
B         -1.16137       -0.65792       -0.78131
B          1.76557       -0.78965       -0.84746
B          1.62766       -4.08753        0.29863
B         -4.06189       -0.61038       -0.38852
B          1.66664       -2.40829       -0.28765
B         -4.07134       -2.31813        0.07690
B          0.18534       -4.70369        0.42911
B          3.06664       -3.26868        0.31595
B          3.13475       -1.64237       -0.24291
B          4.60353       -0.84989        0.25418
B          0.36737        1.79534       -0.91115
B          1.76918        2.46281       -0.27903
B          3.20557        1.63225       -0.23697
B          4.63685        0.77460        0.25657
B          4.51400        2.34187        0.51502
B          3.21429        3.24540        0.33161
B          1.81432        4.12883        0.31714
B          0.40888        3.39772       -0.37344
B          0.41757        4.81612        0.45009
B         -2.43741        3.48782       -0.06993
B         -1.01417        4.26208        0.17307
B         -2.50996        1.85849       -0.45683
B         -3.86194        2.71750        0.07554
B         -3.99317        1.05771       -0.38263
B         -1.06367        2.64105       -0.61348
B         -1.17842       -2.42639       -0.62215
B          3.25216       -0.09627       -0.63546
B         -1.09054        0.92281       -0.76821
B          4.42035       -2.41741        0.50377
B         -5.34401       -1.47161        0.56717
B         -5.27474        0.16216        0.33790
B         -5.20331        1.96411        0.57204
B         -6.38770        1.05504        1.16580
B         -6.45950       -0.47644        1.16715
B          1.80046        0.85950       -0.84432
B         -2.51165       -2.63930        0.26387
B          0.31440       -1.65674       -0.91892
B          5.89697       -1.70347        0.70832
B          6.11864       -0.01911        0.77284
B          5.96713        1.66633        0.78343
B         -0.29932       -0.79071        0.11002
