45
isomer_0221.log	Energy: -113458.7440545
B         -2.54772        1.66372        0.63365
B         -2.53513        3.38381        0.05450
B         -1.18661        4.14818       -0.01757
B          0.27652        3.43797        0.65865
B         -1.20251        0.93800        1.07150
B          1.74977        0.92338        0.98553
B          1.65012        4.15911       -0.19583
B         -3.90345        0.91462        0.14980
B          1.71091        2.56955        0.47692
B         -3.79557        2.51583       -0.20482
B          0.22661        4.70824       -0.31188
B          3.01742        3.32193       -0.26709
B          3.08805        1.74531        0.22355
B          4.35862        0.78635       -0.40110
B          0.28775       -1.73412        1.46048
B          1.40524       -2.41402        0.04799
B          2.99708       -1.71966        0.10522
B          4.45942       -0.86972       -0.11228
B          4.20411       -2.50421       -0.76781
B          2.86956       -3.28747       -0.30403
B          1.55313       -4.14191       -0.00479
B          0.23206       -3.33196        0.94520
B          0.17895       -4.71886        0.08364
B         -2.52494       -3.31435       -0.04471
B         -1.22763       -4.12690        0.19404
B         -2.56769       -1.60810        0.43763
B         -3.80530       -2.45280       -0.31085
B         -3.89240       -0.85226        0.10051
B         -1.08687       -2.40921        0.26385
B         -1.19906        2.57817        0.74722
B          3.14876       -0.00173        0.49772
B         -1.21795       -0.73919        0.83412
B          4.33542        2.46372       -0.76483
B         -5.08989        1.69233       -0.77594
B         -5.14951        0.03813       -0.45354
B         -5.11756       -1.60782       -0.87097
B         -6.13059       -0.69749       -1.55822
B         -6.12428        0.79935       -1.52463
B          1.57678       -0.75289        0.51479
B          0.24702        0.00415        1.24830
B          0.32685        1.81890        1.21229
B          5.42802        1.53468       -1.28015
B          5.57106       -0.04265       -1.27491
B          5.30889       -1.56487       -1.26890
B          0.09654       -1.25324       -0.23226
