45
isomer_2210.log	Energy: -113463.5483454
B         -2.51368       -1.62368       -0.61350
B         -2.44624       -3.10770        0.27926
B         -1.03271       -3.98174        0.21351
B          0.33397       -3.30535       -0.51904
B         -1.04081       -0.73505       -0.99501
B          1.80605       -0.77727       -0.75696
B          1.76064       -4.09192        0.15692
B         -3.98258       -0.71906       -0.51344
B          1.83215       -2.48349       -0.52570
B         -3.97964       -2.33570       -0.44560
B          0.33944       -4.62363        0.40583
B          3.14336       -3.31051        0.08462
B          3.31479       -1.71595       -0.42347
B          4.72405       -0.90565       -0.12826
B          0.42913        1.76295       -0.97817
B          1.84221        2.50219       -0.33072
B          3.21074        1.64874       -0.10368
B          4.65891        0.77148        0.17728
B          4.52685        2.40223        0.74738
B          3.17105        3.21684        0.40386
B          1.77327        4.09679        0.40307
B          0.43184        3.38625       -0.38633
B          0.38508        4.73881        0.46548
B         -2.40084        3.42336       -0.14657
B         -1.00961        4.19384        0.10871
B         -2.46551        1.82489       -0.60657
B         -3.78793        2.62528        0.07195
B         -3.94692        1.01273       -0.46084
B         -1.03007        2.63999       -0.73830
B         -1.02763       -2.39172       -0.50568
B          3.31360        0.00856       -0.62091
B         -0.99183        0.90672       -0.99345
B          4.51218       -2.50157        0.50657
B         -4.93337       -1.58503        0.88448
B         -5.00149        0.13345        0.51792
B         -5.02411        1.82967        0.68022
B         -6.08312        0.89110        1.40093
B         -6.05209       -0.60872        1.47395
B          1.79719        0.82351       -0.78415
B         -3.58982       -2.42686        1.07974
B          0.39754       -1.60232       -0.88980
B          5.54838       -1.56605        1.10133
B          5.85671       -0.05317        1.07486
B          5.70385        1.48322        1.13978
B         -2.47298        0.12955       -0.91149
