45
isomer_2211.log	Energy: -113441.9679754
B         -2.45070        1.82382        0.46701
B         -2.37348        3.45228       -0.11149
B         -0.97895        4.21776       -0.27941
B          0.44129        3.42708        0.33829
B         -1.14774        0.95933        1.03431
B          1.77570        0.86136        0.72653
B          1.83468        4.13194       -0.42049
B         -3.72900        1.01896       -0.01655
B          1.84824        2.55097        0.46061
B         -3.79746        2.69193       -0.15980
B          0.45549        4.75237       -0.56143
B          3.19434        3.24706       -0.34761
B          3.21531        1.67937        0.16842
B          4.64465        0.72756        0.04485
B          0.27740       -1.65386        1.30437
B          1.55266       -2.48820        0.56680
B          3.02510       -1.74421        0.31702
B          4.41124       -0.90740       -0.21533
B          4.26474       -2.56374       -0.59908
B          2.82909       -3.27256       -0.16979
B          1.38032       -3.97993       -0.24401
B         -0.07626       -3.24217        0.39346
B          0.04985       -4.50033       -0.66211
B         -2.66215       -3.19380       -0.79607
B         -1.38519       -4.10460       -0.81071
B         -2.47501       -1.74099        0.39437
B         -3.73916       -2.13562       -0.65092
B         -3.68397       -0.64441       -0.00724
B         -1.82035       -3.42117        0.59188
B         -1.08852        2.68695        0.57241
B          3.25578       -0.02824        0.65392
B         -1.28507       -0.63237        1.02418
B          4.49859        2.36268       -0.68913
B         -5.12767        1.93621       -0.51141
B         -5.17571        0.23843       -0.08127
B         -5.16475       -1.31593       -0.68190
B         -6.36998       -0.47165       -1.00008
B         -6.24515        1.01008       -1.06342
B          1.68426       -0.78890        1.00787
B         -1.17019       -2.28407        1.41972
B          0.39944        1.88193        0.97218
B          5.51922        1.32882       -1.14867
B          5.69442       -0.21225       -1.10879
B          5.44510       -1.75528       -1.08746
B          0.24958        0.09481        0.96597
