45
isomer_2214.log	Energy: -113388.1524954
B         -2.51045        1.66727        0.46504
B         -2.48405        3.34610        0.01040
B         -1.12114        4.12641       -0.14093
B          0.30174        3.33390        0.39072
B         -1.21051        0.77659        0.96204
B          1.76080        0.86758        0.79795
B          1.70013        4.11559       -0.33561
B         -3.90426        0.94202        0.07357
B          1.76782        2.51236        0.37178
B         -3.83596        2.56537       -0.12139
B          0.28105        4.70401       -0.42862
B          3.08095        3.30511       -0.31998
B          3.16606        1.70790        0.19677
B          4.59206        0.84845       -0.12449
B          0.45447       -1.71674        1.39761
B          1.72667       -2.46673        0.45462
B          3.17503       -1.67102        0.31629
B          4.57278       -0.83019       -0.07424
B          4.39859       -2.43493       -0.67833
B          3.00102       -3.22139       -0.25577
B          1.56844       -3.90997       -0.39508
B          0.09756       -3.26274        0.45266
B          0.18479       -4.32378       -0.78456
B         -2.63131       -3.16323       -0.58265
B         -1.22598       -3.84942       -0.70207
B         -2.52702       -1.56058        0.25292
B         -3.88368       -2.28586       -0.53652
B         -3.91666       -0.76168        0.01135
B         -1.64151       -2.93412        0.69843
B         -1.16530        2.53455        0.70832
B          3.34438        0.02721        0.68197
B         -1.20545       -0.88693        0.99901
B          4.41699        2.47000       -0.74527
B         -5.22679        1.80890       -0.55641
B         -5.28027        0.14195       -0.24533
B         -5.29020       -1.45140       -0.79566
B         -6.40775       -0.53839       -1.25637
B         -6.35890        0.95923       -1.17466
B          1.75725       -0.78264        0.90574
B         -0.78950       -2.43762        1.83542
B          0.31689        1.76888        1.00787
B          5.49456        1.52975       -1.25570
B          5.69032       -0.00899       -1.21374
B          5.48413       -1.54884       -1.20461
B          0.28224       -0.01193        0.93747
