45
isomer_2215.log	Energy: -113505.2276543
B          2.18249        2.09142       -0.53398
B          1.81552        3.65518        0.17093
B          0.38341        4.31438        0.15733
B         -0.89459        3.40673       -0.62197
B          1.00606        1.19459       -1.28099
B         -1.87871        0.63378       -1.10171
B         -2.35237        3.90800        0.19044
B          3.61330        1.45828       -0.03356
B         -2.15599        2.31600       -0.62735
B          3.15860        2.90821        0.55971
B         -1.09194        4.70645        0.34112
B         -3.53002        2.79309        0.22250
B         -3.35585        1.26250       -0.30472
B         -4.42557        0.09100        0.37039
B          0.04251       -1.61748       -1.16720
B         -1.11879       -2.60326       -0.46644
B         -2.64408       -2.11016       -0.13155
B         -4.25478       -1.54841        0.09380
B         -3.64353       -3.05889        0.84909
B         -2.17024       -3.58527        0.42792
B         -0.60320       -4.06670        0.44194
B          0.46484       -3.09517       -0.51545
B          0.88316       -4.23802        0.53273
B          3.34327       -2.86399       -0.92826
B          2.15462       -3.44681       -0.00835
B          2.90021       -0.99232       -1.34138
B          4.39283       -1.76068       -0.79232
B          3.96235       -0.21306       -0.44548
B          1.69590       -1.97422       -0.80405
B          0.70952        2.85640       -0.75836
B         -3.16149       -0.47249       -0.59616
B          1.35606       -0.36235       -1.43470
B         -4.69379        1.74685        0.72384
B          4.19615        2.04027        1.47384
B          4.59755        0.52399        0.91096
B          4.44916       -1.23296        0.95660
B          5.06641       -0.45643        2.16059
B          4.91877        0.99598        2.40789
B         -1.49873       -0.93336       -0.81990
B          2.99318       -1.75039        0.37654
B         -0.63792        1.89305       -1.25380
B         -5.60556        0.66933        1.27091
B         -5.44131       -0.88656        1.32722
B         -4.85630       -2.31796        1.37251
B         -0.27110        0.12149       -1.37114
