45
isomer_2216.log	Energy: -112019.0324269
B         -2.64695        1.73921        0.40635
B         -2.64240        3.38075        0.04176
B         -1.23775        4.21570       -0.19621
B          0.22175        3.38098        0.34296
B         -1.18523        0.84718        0.70054
B          1.68961        0.88127        0.78002
B          1.60908        4.17554       -0.34138
B         -4.10414        0.86311        0.32763
B          1.60622        2.49068        0.23478
B         -4.04866        2.55945       -0.11325
B          0.18271        4.83776       -0.47147
B          3.04252        3.33140       -0.36687
B          3.07323        1.70473        0.18416
B          4.53337        0.89941       -0.32333
B          0.26024       -1.67815        0.82538
B          1.64273       -2.36471        0.18967
B          3.09775       -1.55599        0.15387
B          4.54554       -0.71952       -0.33837
B          4.38913       -2.27604       -0.59769
B          3.09142       -3.17242       -0.42729
B          1.67084       -4.03834       -0.41769
B          0.27181       -3.27758        0.28109
B          0.25457       -4.71940       -0.56026
B         -2.59206       -3.31482       -0.02044
B         -1.17505       -4.12399       -0.27369
B         -2.62123       -1.68059        0.37458
B         -4.01053       -2.51202       -0.16036
B         -4.09144       -0.82518        0.31195
B         -1.18459       -2.49554        0.52650
B         -1.22270        2.57271        0.57359
B          3.16894        0.17131        0.56638
B         -1.17305       -0.77230        0.68549
B          4.35354        2.45796       -0.55371
B         -5.36794        1.74945       -0.62191
B         -5.35229        0.11625       -0.40315
B         -5.34191       -1.71264       -0.65407
B         -6.51571       -0.76110       -1.24490
B         -6.52738        0.79151       -1.23047
B          1.70199       -0.76464        0.76473
B          0.16421       -1.38147       -0.02932
B          0.23430        1.77172        0.85743
B          5.86697        1.76032       -0.77772
B          6.07475        0.04928       -0.85905
B          5.88998       -1.68201       -0.88030
B          0.40379       -0.91923        2.73405
