45
isomer_2217.log	Energy: -113286.3161586
B          2.42352        1.64088       -0.65268
B          2.32385        3.35180       -0.08003
B          0.94593        4.09372        0.09164
B         -0.46404        3.35281       -0.57273
B          1.11312        0.81324       -1.19851
B         -1.79364        0.90347       -0.74980
B         -1.87458        4.08568        0.34938
B          3.87332        1.00983       -0.21649
B         -1.91153        2.53431       -0.31671
B          3.65478        2.60551        0.09007
B         -0.46823        4.62620        0.41985
B         -3.25581        3.21631        0.36667
B         -3.24210        1.64466       -0.17988
B         -4.57444        0.67193        0.28134
B         -0.20158       -1.51286       -1.04423
B         -1.48592       -2.47789       -0.31548
B         -2.97461       -1.73626       -0.08667
B         -4.42936       -0.98090        0.26740
B         -4.27400       -2.60950        0.67746
B         -2.79528       -3.31652        0.31613
B         -1.33956       -4.01976        0.29674
B          0.04852       -3.30034       -0.72810
B          0.06503       -4.45839        0.50043
B          2.81645       -3.13552        0.47857
B          1.46604       -3.98225        0.42350
B          2.75225       -1.45806       -0.41977
B          4.02935       -2.18112        0.47455
B          4.05917       -0.67570       -0.14177
B          1.72399       -2.72170       -0.62130
B          1.04150        2.51996       -0.71015
B         -3.22787       -0.05904       -0.42327
B          1.42405       -0.81872       -1.19871
B         -4.63084        2.32775        0.66073
B          4.99068        1.95817        0.72427
B          5.17007        0.32020        0.51449
B          5.30603       -1.28939        0.95046
B          6.20976       -0.28957        1.64670
B          6.04699        1.19698        1.57309
B         -1.65998       -0.79666       -0.71302
B          0.84672       -2.31621       -1.85700
B         -0.43568        1.82196       -1.13753
B         -5.69116        1.34243        1.17621
B         -5.74399       -0.23791        1.20076
B         -5.42749       -1.77916        1.21565
B         -0.42943        0.11562       -1.33223
