45
isomer_2218.log	Energy: -112744.8189287
B         -2.58957       -1.57127       -0.56053
B         -2.58120       -3.24463       -0.18051
B         -1.19965       -4.07641        0.04666
B          0.25482       -3.30261       -0.46792
B         -1.21790       -0.62570       -0.93744
B          1.70281       -0.75452       -0.92659
B          1.61677       -4.10157        0.21555
B         -3.98430       -0.74119       -0.46394
B          1.67697       -2.44303       -0.35912
B         -3.92677       -2.40369       -0.02453
B          0.19803       -4.67350        0.32053
B          3.02001       -3.22093        0.23355
B          3.09197       -1.65078       -0.29167
B          4.53228       -0.79942        0.19169
B          0.31170        1.79675       -0.96867
B          1.68001        2.51378       -0.31824
B          3.10728        1.70809       -0.26072
B          4.51486        0.85415        0.20549
B          4.44284        2.48421        0.53730
B          3.04600        3.27133        0.31455
B          1.66740        4.15370        0.33005
B          0.29214        3.41098       -0.38793
B          0.27138        4.76192        0.45368
B         -2.52653        3.38944       -0.07799
B         -1.14521        4.19289        0.16234
B         -2.57877        1.75431       -0.51081
B         -3.93571        2.53180        0.08102
B         -3.99370        0.94638       -0.42739
B         -1.17938        2.60864       -0.64338
B         -1.20714       -2.45474       -0.68104
B          3.18565       -0.00372       -0.66151
B         -1.13653        0.89236       -0.86466
B          4.46520       -2.45125        0.47574
B         -5.21005       -1.65691        0.51263
B         -5.21162        0.02416        0.30605
B         -5.21302        1.74034        0.56821
B         -6.33621        0.79086        1.15748
B         -6.35709       -0.72295        1.14447
B          1.70585        0.90983       -0.91253
B         -0.43454       -1.21104        2.06236
B          0.32104       -1.65453       -0.98756
B          5.74358       -1.59763        0.67843
B          5.91316        0.02999        0.73590
B          5.73239        1.60492        0.76146
B         -0.52923       -1.00881        0.41954
