45
isomer_0222.log	Energy: -111379.0480553
B          2.59317       -1.66470        0.32619
B          2.59082       -3.29761       -0.07529
B          1.18678       -4.13294       -0.31554
B         -0.26954       -3.31676        0.25945
B          1.13150       -0.78572        0.65759
B         -1.74204       -0.83378        0.77005
B         -1.66171       -4.10157       -0.42631
B          4.04583       -0.78088        0.25016
B         -1.65872       -2.43012        0.18767
B          3.99187       -2.46708       -0.22822
B         -0.23436       -4.75465       -0.58807
B         -3.09869       -3.26315       -0.41589
B         -3.12933       -1.64945        0.17205
B         -4.59856       -0.83910       -0.29994
B         -0.32240        1.73001        0.85640
B         -1.71503        2.42485        0.25264
B         -3.16715        1.61098        0.21568
B         -4.61734        0.77969       -0.27828
B         -4.47019        2.34231       -0.50421
B         -3.17412        3.24011       -0.32887
B         -1.75698        4.11161       -0.31641
B         -0.34676        3.34123        0.34854
B         -0.34521        4.80170       -0.46019
B          2.51316        3.39738        0.01430
B          1.09006        4.20605       -0.20395
B          2.55350        1.75481        0.37195
B          3.93306        2.60395       -0.16037
B          4.02625        0.90727        0.27275
B          1.11554        2.56004        0.55910
B          1.17432       -2.50778        0.49129
B         -3.22660       -0.12546        0.58989
B          1.11272        0.83362        0.67926
B         -4.41529       -2.39128       -0.56755
B          5.30182       -1.64025       -0.73393
B          5.28227       -0.01247       -0.47819
B          5.26167        1.82155       -0.68761
B          6.43215        0.88854       -1.31351
B          6.45016       -0.66394       -1.33429
B         -1.76113        0.81199        0.79208
B          1.62784       -1.15330        2.68731
B         -0.28239       -1.71957        0.81024
B         -5.93402       -1.69520       -0.75796
B         -6.14954        0.01635       -0.79819
B         -5.97191        1.74845       -0.78251
B          0.63450        0.29429        0.49071
