45
isomer_2220.log	Energy: -113289.8978565
B         -2.49985       -1.85237       -0.74944
B         -2.48393       -3.35922        0.04844
B         -1.04203       -4.16414        0.28516
B          0.36630       -3.38230       -0.34988
B         -1.31043       -0.74864       -1.08836
B          1.74492       -0.86926       -0.96730
B          1.71091       -4.04170        0.46013
B         -3.78903       -0.84338       -0.10308
B          1.78003       -2.50044       -0.41906
B         -3.81534       -2.45539        0.25149
B          0.33988       -4.70572        0.58115
B          3.07207       -3.16971        0.48476
B          3.13435       -1.66860       -0.21326
B          4.49749       -0.78161        0.22536
B          0.37678        1.78014       -1.10217
B          1.74251        2.49934       -0.47315
B          3.14511        1.72459       -0.26228
B          4.52673        0.90858        0.21851
B          4.45606        2.55251        0.64580
B          3.06622        3.27247        0.26502
B          1.67221        4.12417        0.29378
B          0.31228        3.38651       -0.48552
B          0.27708        4.70321        0.43805
B         -2.54520        3.46977       -0.13370
B         -1.10499        4.16284        0.03964
B         -2.60701        1.89122       -0.55487
B         -3.95838        2.65733        0.14056
B         -3.86695        0.93053       -0.08510
B         -1.17655        2.54400       -0.70289
B         -1.11390       -2.73198       -0.63357
B          3.19706        0.01419       -0.53489
B         -1.01562        0.90288       -1.10488
B          4.41809       -2.37469        0.81920
B         -4.97001       -1.62702        0.94251
B         -4.98330        0.07138        0.73621
B         -5.07838        1.78941        0.86161
B         -6.00254        0.82479        1.70206
B         -5.94917       -0.68021        1.75403
B          1.70583        0.80626       -0.94566
B         -2.40198        0.21886       -0.49785
B          0.34694       -1.82083       -1.30915
B          5.50711       -1.41935        1.30090
B          5.73216        0.13793        1.17690
B          5.58085        1.64286        1.16582
B         -0.99436       -1.81921       -2.12103
