45
isomer_2221.log	Energy: -113428.1914223
B         -2.62178        1.60858        0.41975
B         -2.60497        3.30006        0.15875
B         -1.20136        4.09519        0.09253
B          0.26155        3.35416        0.75056
B         -1.15274        0.80081        0.55923
B          1.61917        0.82708        0.44201
B          1.64864        4.12044       -0.09845
B         -4.05091        0.84294        0.29828
B          1.72713        2.54015        0.43157
B         -3.95784        2.43901       -0.20501
B          0.20851        4.63489       -0.19495
B          3.06161        3.32856       -0.17165
B          3.11029        1.68582        0.19667
B          4.50915        0.84628       -0.20372
B          0.27792       -1.65562        1.13450
B          1.72319       -2.54073        0.43085
B          3.10553       -1.68631        0.19028
B          4.50914       -0.84868       -0.19870
B          4.38882       -2.50409       -0.69853
B          3.05927       -3.32988       -0.17223
B          1.64784       -4.12190       -0.09848
B          0.26208       -3.35682        0.75931
B          0.20716       -4.63108       -0.19673
B         -2.60346       -3.29811        0.15786
B         -1.20310       -4.09448        0.09274
B         -2.61978       -1.60522        0.41998
B         -3.95548       -2.43606       -0.20825
B         -4.04972       -0.84255        0.29990
B         -1.25790       -2.50905        0.63238
B         -1.26053        2.51021        0.63520
B          3.22513       -0.00047        0.50139
B         -1.14566       -0.80226        0.55751
B          4.39173        2.50310       -0.69834
B         -5.17111        1.68670       -0.81583
B         -5.22970       -0.00053       -0.54158
B         -5.17252       -1.68824       -0.81468
B         -6.25917       -0.74785       -1.51012
B         -6.25723        0.74483       -1.51239
B          1.61009       -0.82820        0.42717
B          0.21560       -0.00201        1.58410
B          0.27638        1.65167        1.12772
B          5.43973        1.56490       -1.27160
B          5.63340       -0.00097       -1.25555
B          5.43713       -1.56558       -1.27063
B          0.21880        0.01131       -0.16281
