45
isomer_2222.log	Energy: -113463.0627623
B          2.56277       -1.74927        0.66009
B          2.45763       -3.11314       -0.41956
B          1.08996       -3.82328       -0.61687
B         -0.17117       -3.32435        0.45242
B          1.23603       -0.76916        0.66187
B         -1.68659       -0.77339        0.91833
B         -1.69115       -4.07872       -0.28723
B          3.94470       -0.85331        0.31920
B         -1.70568       -2.47969        0.42514
B          3.84092       -2.31870       -0.35029
B         -0.34125       -4.46458       -0.73698
B         -3.04711       -3.27233       -0.13080
B         -3.12542       -1.68471        0.41401
B         -4.53569       -0.80156        0.06597
B         -0.30910        1.83739        0.91234
B         -1.72325        2.56001        0.47843
B         -3.14555        1.78953        0.28013
B         -4.53245        0.84571       -0.06595
B         -4.38823        2.48887       -0.66796
B         -3.02851        3.31685       -0.34518
B         -1.66079        4.16010       -0.44667
B         -0.28287        3.35625        0.22992
B         -0.25302        4.70521       -0.61926
B          2.54437        3.33667       -0.08765
B          1.17529        4.10033       -0.32937
B          2.56257        1.64710        0.64150
B          3.84403        2.49869       -0.08270
B          3.96143        0.92572        0.37266
B          1.19338        2.53403        0.42802
B          1.31945       -2.79121        1.05911
B         -3.26014        0.05902        0.70723
B          1.17623        0.88404        0.94452
B         -4.42345       -2.42256       -0.48761
B          5.20941       -1.54551       -0.62719
B          5.25920        0.05517       -0.09679
B          5.22052        1.70489       -0.48486
B          6.30673        0.84400       -1.13171
B          6.31083       -0.62570       -1.19560
B         -1.75661        0.89248        0.94046
B          1.05118       -2.03774       -0.50376
B         -0.20784       -1.70063        0.79019
B         -5.50917       -1.53106       -1.00508
B         -5.71258        0.01930       -1.03655
B         -5.52178        1.55618       -1.09882
B         -0.24722        0.04306        1.15291
