45
isomer_2223.log	Energy: -113415.2480361
B         -2.51026        1.71358        0.35282
B         -2.41096        3.33530       -0.20191
B         -0.99250        4.13237       -0.24520
B          0.37371        3.35415        0.40411
B         -1.17157        0.82211        0.79089
B          1.71974        0.75032        1.07457
B          1.81989        4.09324       -0.17006
B         -3.89785        0.95237        0.04342
B          1.82160        2.47263        0.54206
B         -3.79192        2.53998       -0.34193
B          0.42952        4.73267       -0.38316
B          3.15576        3.20055       -0.10356
B          3.18159        1.60028        0.44717
B          4.49276        0.71030       -0.15337
B          0.23613       -1.76852        1.06207
B          1.55703       -2.55196        0.28399
B          2.97519       -1.76123        0.11810
B          4.43756       -0.97693       -0.12381
B          4.20987       -2.56753       -0.79683
B          2.86903       -3.38791       -0.33284
B          1.48370       -4.17335       -0.30088
B          0.13794       -3.39429        0.57280
B          0.03752       -4.69683       -0.37928
B         -2.65575       -3.24215       -0.01127
B         -1.32730       -4.09959       -0.08039
B         -2.63488       -1.59483        0.61281
B         -3.93430       -2.35586       -0.19472
B         -3.95463       -0.76164        0.17438
B         -1.30218       -2.51080        0.69465
B         -1.13688        2.58440        0.53106
B          3.16772       -0.08688        0.60005
B         -1.20621       -0.79589        0.94394
B          4.48770        2.37971       -0.54204
B         -5.18238        1.75125       -0.75244
B         -5.28948        0.12977       -0.20233
B         -5.28296       -1.51957       -0.61610
B         -6.34912       -0.63091       -1.23527
B         -6.28873        0.86369       -1.30417
B          1.49289       -0.79678        0.26399
B          0.20374        0.20842       -0.05159
B          0.32631        1.72663        0.93618
B          5.53427        1.44917       -1.10625
B          5.60316       -0.11084       -1.18279
B          5.29459       -1.64225       -1.29285
B          0.27094       -0.07633        1.65597
