45
isomer_2225.log	Energy: -111624.3067903
B          2.59287        1.76191       -0.45586
B          2.57779        3.40278       -0.08854
B          1.16778        4.22856        0.14966
B         -0.28605        3.38566       -0.39210
B          1.13698        0.86128       -0.75274
B         -1.73795        0.87759       -0.83454
B         -1.67887        4.17041        0.29241
B          4.05543        0.89478       -0.37740
B         -1.66504        2.48657       -0.28655
B          3.98902        2.59000        0.06626
B         -0.25676        4.84129        0.42479
B         -3.10704        3.31732        0.31531
B         -3.12716        1.69141       -0.23845
B         -4.58266        0.87616        0.26649
B         -0.29262       -1.67280       -0.88298
B         -1.67131       -2.36902       -0.24956
B         -3.13138       -1.56944       -0.21361
B         -4.58475       -0.74283        0.27883
B         -4.41886       -2.29879        0.53569
B         -3.11544       -3.18677        0.36486
B         -1.68949       -4.04380        0.35499
B         -0.29466       -3.27317       -0.34137
B         -0.26912       -4.71627        0.49760
B          2.56914       -3.29307       -0.03753
B          1.15700       -4.11148        0.21320
B          2.58845       -1.65803       -0.42980
B          3.98246       -2.48168        0.10489
B          4.05325       -0.79359       -0.36454
B          1.15704       -2.48167       -0.58427
B          1.16359        2.58679       -0.62289
B         -3.21300        0.15807       -0.62330
B          1.13488       -0.75827       -0.74040
B         -4.41274        2.43541        0.49962
B          5.31291        1.78739        0.57466
B          5.30762        0.15449        0.35317
B          5.30844       -1.67484        0.60104
B          6.47579       -0.71700        1.19441
B          6.47780        0.83568        1.18258
B         -1.74008       -0.76839       -0.82200
B          1.11858       -0.43774        0.85589
B         -0.28816        1.77722       -0.90926
B         -5.92197        1.72799        0.72122
B         -6.11916        0.01554        0.79953
B         -5.92361       -1.71460        0.81804
B          0.20105       -2.10104       -1.21748
