45
isomer_2227.log	Energy: -113353.1367366
B          2.50095        1.70489       -0.59833
B          2.49659        3.36488        0.00907
B          1.13069        4.09242        0.29974
B         -0.32470        3.39612       -0.29464
B          1.03485        0.99653       -1.03321
B         -1.79701        0.95609       -0.98733
B         -1.67192        4.05560        0.54878
B          3.88776        0.96883       -0.35696
B         -1.79086        2.56652       -0.38000
B          3.80355        2.57281        0.04100
B         -0.25643        4.63868        0.69232
B         -3.09238        3.26261        0.44818
B         -3.18172        1.75781       -0.19811
B         -4.53711        0.81255        0.21578
B         -0.29422       -1.35894       -0.63231
B         -1.70333       -2.34032       -0.56075
B         -3.17256       -1.63047       -0.47955
B         -4.63951       -0.80114       -0.25083
B         -4.42751       -2.42678        0.34206
B         -3.01463       -3.21605        0.00562
B         -1.61815       -3.97500        0.11677
B         -0.11174       -3.08650       -0.34570
B         -0.32267       -4.43340        0.64596
B          2.39946       -2.93490        0.90392
B          1.09275       -3.84122        0.86585
B          2.48497       -1.67745       -0.43455
B          3.77525       -2.17198        0.63405
B          3.80341       -0.68689       -0.09946
B          1.66771       -3.33818       -0.64468
B          1.11221        2.59220       -0.69625
B         -3.29877        0.12049       -0.72380
B          1.20233       -0.58075       -0.93670
B         -4.47750        2.46176        0.73998
B          5.24346        1.77598        0.32686
B          5.26904        0.11646       -0.04219
B          5.14602       -1.42220        0.72776
B          6.27172       -0.44712        1.15474
B          6.39189        0.99105        0.88078
B         -1.75621       -0.63684       -0.78607
B          1.00276       -1.90688        0.40711
B         -0.38116        1.83270       -1.06344
B         -5.64858        1.53589        1.09946
B         -5.80625       -0.00585        0.99089
B         -5.48396       -1.51542        0.92876
B          1.09152       -2.13857       -1.48059
