45
isomer_2228.log	Energy: -112241.8995879
B         -2.56481        1.71745        0.37958
B         -2.53919        3.35012       -0.01608
B         -1.13057        4.17734       -0.25822
B          0.31755        3.34886        0.30533
B         -1.10635        0.83047        0.69762
B          1.76605        0.84189        0.79827
B          1.71065        4.11755       -0.38653
B         -4.02687        0.84462        0.30259
B          1.69951        2.44798        0.22175
B         -3.95122        2.52458       -0.16486
B          0.29080        4.77686       -0.53382
B          3.13595        3.26400       -0.38881
B          3.15673        1.64771        0.19106
B          4.61182        0.81657       -0.29135
B          0.32765       -1.70461        0.87281
B          1.70205       -2.42558        0.26099
B          3.15783       -1.62588        0.22290
B          4.60914       -0.80749       -0.27313
B          4.45031       -2.37212       -0.51000
B          3.13590       -3.25482       -0.32971
B          1.71740       -4.10687       -0.31294
B          0.32042       -3.32865        0.35874
B          0.29829       -4.77273       -0.44989
B         -2.54576       -3.35158        0.03614
B         -1.12599       -4.17246       -0.18893
B         -2.59007       -1.70268        0.39702
B         -3.96962       -2.53399       -0.12929
B         -4.03372       -0.84610        0.31475
B         -1.12968       -2.53815        0.57778
B         -1.13321        2.55606        0.54077
B          3.23967        0.11076        0.60288
B         -1.09636       -0.77070        0.71178
B          4.45280        2.38063       -0.55641
B         -5.27238        1.71801       -0.66917
B         -5.27418        0.08627       -0.42166
B         -5.27915       -1.73587       -0.63846
B         -6.43039       -0.78606       -1.25069
B         -6.43264        0.75567       -1.26705
B          1.76727       -0.80944        0.81060
B         -1.40832       -1.22556        0.05341
B          0.31981        1.74919        0.85561
B          5.94118        1.64450       -0.75224
B          6.12876       -0.05353       -0.79628
B          5.93512       -1.76335       -0.78574
B         -1.15219        0.98110        1.85891
