45
isomer_2231.log	Energy: -113419.0364237
B          2.61908       -1.62565       -0.00368
B          2.67796       -3.25679       -0.00698
B          1.31986       -4.04929       -0.09194
B         -0.09434       -3.20229        0.26546
B          1.76366       -0.35508        0.35140
B         -1.69591       -0.79657        0.72931
B         -1.48779       -4.08076       -0.38496
B          3.95126       -0.78662        0.01758
B         -1.60031       -2.43822        0.30695
B          4.04150       -2.46265       -0.15597
B         -0.06282       -4.64371       -0.41077
B         -2.89662       -3.32658       -0.35139
B         -3.08365       -1.73652        0.16457
B         -4.61407       -1.01254        0.01766
B         -0.41766        1.86565        1.10444
B         -1.81451        2.48874        0.39850
B         -3.19148        1.61891        0.29732
B         -4.47372        0.64860       -0.33020
B         -4.45574        2.28979       -0.75391
B         -3.13458        3.16270       -0.32657
B         -1.81880        4.11300       -0.29324
B         -0.43321        3.43645        0.61680
B         -0.42856        4.69121       -0.41421
B          2.33295        3.26010       -0.23244
B          0.98204        4.12126       -0.25592
B          2.39330        1.58664        0.34271
B          3.69277        2.47006       -0.39743
B          3.83926        0.92720        0.02311
B          1.04200        2.60137        0.55711
B          1.29566       -2.31582        0.80218
B         -3.32198       -0.08144        0.65156
B          1.03811        0.90990        0.90929
B         -4.28237       -2.58603       -0.70177
B          5.35061       -1.53585       -0.62310
B          5.21396        0.11354       -0.33482
B          5.15231        1.76793       -0.72733
B          6.35116        0.94308       -1.21307
B          6.42174       -0.55195       -1.20226
B         -1.81220        0.79940        1.08112
B         -0.36401        0.06312        1.49715
B         -0.27396       -1.66623        0.92487
B         -5.42531       -1.70150       -1.18434
B         -5.72048       -0.19286       -1.17554
B         -5.57698        1.37041       -1.20684
B          1.00184       -0.84411        1.71957
