45
isomer_2232.log	Energy: -113458.2152529
B         -2.55629        1.72649        0.65970
B         -2.47279        3.41368       -0.08881
B         -1.09356        4.15579       -0.20032
B          0.33007        3.36990        0.40010
B         -1.22332        0.93807        1.04611
B          1.74045        0.85713        0.86320
B          1.76147        4.13293       -0.21928
B         -3.93597        0.98693        0.21641
B          1.79987        2.54617        0.59788
B         -3.74350        2.56309       -0.26738
B          0.34996        4.71681       -0.42843
B          3.11574        3.28268       -0.16577
B          3.15113        1.67765        0.28700
B          4.54937        0.73951        0.00266
B          0.29226       -1.81269        1.48092
B          1.34538       -2.34871       -0.15395
B          2.97303       -1.79943        0.18511
B          4.32598       -0.87128       -0.35692
B          4.16727       -2.51105       -0.85586
B          2.80402       -3.27143       -0.45464
B          1.47031       -4.09760       -0.23346
B          0.20057       -3.32371        0.78050
B          0.08070       -4.64534       -0.18053
B         -2.62063       -3.24654       -0.00857
B         -1.31837       -4.06311        0.05523
B         -2.64165       -1.54229        0.56560
B         -3.90027       -2.35747       -0.19080
B         -3.98105       -0.78259        0.27138
B         -1.19018       -2.38707        0.38613
B         -1.15215        2.51715        0.44454
B          3.18332       -0.07885        0.59218
B         -1.22201       -0.75560        0.92382
B          4.44860        2.41946       -0.54051
B         -5.06342        1.74016       -0.78393
B         -5.21714        0.12758       -0.33200
B         -5.22450       -1.53514       -0.70297
B         -6.22115       -0.64581       -1.41410
B         -6.12212        0.83898       -1.49422
B          1.67693       -0.91742        0.96921
B          0.11044       -1.26037       -0.17837
B          0.32505        1.78776        0.97874
B          5.47552        1.45364       -1.08339
B          5.61119       -0.10596       -1.18310
B          5.36162       -1.63720       -1.27345
B          0.24982        0.00512        1.08430
