45
isomer_2233.log	Energy: -113420.5111971
B         -2.67867        1.59858        0.72995
B         -2.70514        3.19653        0.06998
B         -1.35595        4.10473       -0.03274
B          0.11790        3.42147        0.57446
B         -1.22076        0.78491        1.02691
B          1.48012        0.81847        0.14633
B          1.43890        4.18051       -0.40197
B         -3.97671        0.69513        0.25887
B          1.52476        2.58992        0.16896
B         -3.96102        2.28601       -0.10713
B         -0.01845        4.69978       -0.40940
B          2.81400        3.37119       -0.50562
B          2.93074        1.73644       -0.06136
B          4.44446        1.02005       -0.08803
B          0.33169       -1.68228        0.76148
B          1.85580       -2.44120        0.57998
B          3.20597       -1.54191        0.53861
B          4.55272       -0.67507        0.04359
B          4.56996       -2.37153       -0.34601
B          3.21942       -3.17885        0.02479
B          1.89399       -4.07287       -0.11959
B          0.41226       -3.29760        0.26526
B          0.50449       -4.72954       -0.39176
B         -2.37827       -3.35380       -0.30144
B         -0.93236       -4.14472       -0.33127
B         -2.50742       -1.75422        0.26982
B         -3.79813       -2.59005       -0.39794
B         -3.88361       -0.97860       -0.01835
B         -1.10641       -2.55443        0.37173
B         -1.31286        2.51815        0.66845
B          3.15301        0.12441        0.59984
B         -1.19450       -0.79544        0.68823
B          4.19793        2.54237       -0.89916
B         -5.35059        1.45037       -0.46476
B         -5.31787       -0.20436       -0.11304
B         -5.18095       -1.80367       -0.76858
B         -6.29877       -0.88745       -1.26211
B         -6.43419        0.59166       -1.06823
B          1.68332       -0.69183        1.09603
B          0.27454        0.10600        1.61230
B          0.21727        1.76191        0.91974
B          5.33573        1.62831       -1.26653
B          5.66492        0.10339       -1.04527
B          5.61012       -1.43575       -0.90464
B          0.17861       -0.14512       -0.11036
