45
isomer_2234.log	Energy: -113488.1889217
B         -2.58356       -1.66382       -0.60246
B         -2.54489       -3.27270       -0.04807
B         -1.12640       -4.11342       -0.03137
B          0.34896       -3.42025       -1.13831
B         -1.27411       -0.77486       -1.04204
B          1.66740       -0.74408       -0.82832
B          1.63259       -4.06797        0.00699
B         -3.90207       -0.75499       -0.22161
B          1.48706       -2.32485        0.04705
B         -3.82076       -2.39969        0.15842
B          0.27332       -4.74908       -0.03170
B          2.99479       -3.16547        0.28918
B          3.05179       -1.63166       -0.13973
B          4.35955       -0.64171        0.42394
B          0.23142        1.81146       -1.02924
B          1.65354        2.60887       -0.51331
B          3.05409        1.81683       -0.17204
B          4.50689        0.97231        0.02477
B          4.31390        2.62798        0.64907
B          2.93459        3.41765        0.24694
B          1.54077        4.21619        0.21981
B          0.16594        3.40139       -0.53032
B          0.11005        4.77901        0.27999
B         -2.65242        3.33446       -0.19503
B         -1.26659        4.17795       -0.01398
B         -2.67724        1.69160       -0.67949
B         -3.95844        2.50611        0.12705
B         -4.08442        0.88017       -0.35988
B         -1.29726        2.52789       -0.69076
B         -1.13146       -2.52613       -0.65286
B          3.17236        0.11155       -0.51025
B         -1.27904        0.81295       -1.05379
B          4.30148       -2.33834        0.78418
B         -4.96444       -1.56605        0.98060
B         -4.71917        0.10308        0.94061
B         -5.18142        1.73251        0.74079
B         -6.10349        0.78221        1.52464
B         -5.92345       -0.70714        1.74366
B          1.63751        0.90794       -0.73237
B          0.12031       -3.02348        0.58253
B          0.30541       -1.75880       -1.13074
B          5.44770       -1.40410        1.27023
B          5.61846        0.13444        1.23796
B          5.36215        1.68488        1.18484
B          0.19862        0.00919       -1.11558
