45
isomer_2236.log	Energy: -111883.3057376
B          2.55200        1.83347       -0.44525
B          2.51518        3.47028       -0.06173
B          1.09441        4.27455        0.18598
B         -0.34850        3.41747       -0.36268
B          1.10807        0.91622       -0.74960
B         -1.76690        0.89450       -0.82847
B         -1.75103        4.17655        0.33088
B          4.02622        0.98544       -0.37676
B         -1.71511        2.49884       -0.26469
B          3.93742        2.67515        0.08368
B         -0.33797        4.86524        0.46851
B         -3.16753        3.30406        0.34673
B         -3.16631        1.68357       -0.22304
B         -4.61012        0.84379        0.27522
B         -0.28733       -1.63553       -0.90349
B         -1.65581       -2.35651       -0.27565
B         -3.12649       -1.57713       -0.23040
B         -4.59035       -0.77512        0.27157
B         -4.40319       -2.33115        0.51289
B         -3.08810       -3.19972        0.33205
B         -1.65071       -4.03728        0.31234
B         -0.26718       -3.24104       -0.37772
B         -0.22124       -4.69187        0.44693
B          2.59696       -3.22525       -0.07684
B          1.19627       -4.06510        0.16715
B          2.59377       -1.58631       -0.45297
B          3.99936       -2.39629        0.07223
B          4.04684       -0.70285       -0.38058
B          1.17344       -2.42764       -0.61419
B          1.11154        2.64058       -0.60275
B         -3.23187        0.15308       -0.62294
B          1.12786       -0.70324       -0.75326
B         -4.46101        2.40282        0.52358
B          5.27258        1.88552        0.58285
B          5.28908        0.25497        0.34526
B          5.31487       -1.57655        0.57504
B          6.46984       -0.60892        1.17672
B          6.45088        0.94369        1.18023
B         -1.74680       -0.75139       -0.83219
B          1.58316       -2.21711        1.16337
B         -0.32946        1.81433       -0.89570
B         -5.96031        1.67292        0.73963
B         -6.13428       -0.04271        0.80121
B         -5.91537       -1.77015        0.80245
B          0.47323       -1.68818       -1.36558
