45
isomer_2238.log	Energy: -112514.3053854
B          2.61261       -1.69142        0.36473
B          2.60092       -3.32929       -0.01590
B          1.19231       -4.15808       -0.25193
B         -0.26099       -3.32477        0.30588
B          1.15550       -0.79840        0.67816
B         -1.71878       -0.82555        0.77799
B         -1.65538       -4.10884       -0.37621
B          4.07161       -0.81851        0.28412
B         -1.64374       -2.42974        0.21641
B          4.00829       -2.51028       -0.17296
B         -0.23181       -4.77358       -0.52305
B         -3.08663       -3.26064       -0.38310
B         -3.10890       -1.63939        0.18406
B         -4.57041       -0.82520       -0.30499
B         -0.28206        1.72946        0.83815
B         -1.66717        2.42594        0.21917
B         -3.12464        1.62152        0.18591
B         -4.57822        0.79382       -0.30407
B         -4.41939        2.35239       -0.54924
B         -3.11802        3.24356       -0.37939
B         -1.69502        4.10553       -0.37153
B         -0.29313        3.33418        0.30968
B         -0.27794        4.78415       -0.51760
B          2.56860        3.36668       -0.01208
B          1.15205        4.18211       -0.24718
B          2.59610        1.72858        0.36667
B          3.98381        2.56148       -0.17007
B          4.06346        0.86988        0.28508
B          1.16284        2.54586        0.53692
B          1.18730       -2.52269        0.53403
B         -3.19764       -0.10955        0.58197
B          1.14768        0.82117        0.67908
B         -4.39654       -2.38189       -0.55193
B          5.32613       -1.69888       -0.68314
B          5.31654       -0.06787       -0.44827
B          5.30942        1.76342       -0.68116
B          6.47631        0.81458       -1.28972
B          6.48381       -0.73813       -1.29061
B         -1.72672        0.82046        0.77893
B          0.88583        0.08259        2.79540
B         -0.26541       -1.72063        0.83619
B         -5.90960       -1.67802       -0.75819
B         -6.11325        0.03429       -0.82125
B         -5.92385        1.76521       -0.82684
B         -0.03591       -0.33550        0.17187
