45
isomer_2239.log	Energy: -113458.7378465
B          2.56867        1.60817       -0.43667
B          2.52517        3.31459        0.04749
B          1.22722        4.12657       -0.18874
B         -0.23160        3.33069       -0.94134
B          1.21780        0.73877       -0.82870
B         -1.57753        0.75299       -0.51426
B         -1.55517        4.14178        0.00636
B          3.89382        0.85357       -0.10189
B         -1.40781        2.41401       -0.04804
B          3.80583        2.45308        0.31187
B         -0.18035        4.71707       -0.07895
B         -2.87245        3.28678        0.30203
B         -2.99954        1.71910       -0.10839
B         -4.46168        0.86826        0.10788
B         -0.32680       -1.81992       -1.21161
B         -1.71039       -2.56975       -0.47636
B         -3.08777       -1.74651       -0.22105
B         -4.35878       -0.78674        0.40077
B         -4.33634       -2.46453        0.76498
B         -3.01596       -3.32231        0.26996
B         -1.64852       -4.15905        0.19947
B         -0.27500       -3.43806       -0.65439
B         -0.22495       -4.70863        0.31498
B          2.53662       -3.38330       -0.05472
B          1.18832       -4.14773        0.01917
B          2.54820       -1.66328       -0.63442
B          3.79690       -2.51488        0.20236
B          3.90462       -0.91327       -0.15222
B          1.19952       -2.57714       -0.74638
B          1.08793        2.40913       -0.26023
B         -3.14831        0.00027       -0.49711
B          1.20303       -0.93693       -1.07133
B         -4.20803        2.50386        0.76221
B          5.11979        1.60875        0.86842
B          5.15292       -0.03719        0.44810
B          5.09121       -1.69068        0.77271
B          6.12638       -0.79829        1.52061
B          6.13292        0.69838        1.55474
B         -1.74867       -0.92388       -0.98434
B         -0.09865        1.25494        0.23364
B         -0.28691        1.73411       -1.45931
B         -5.31397        1.56429        1.26157
B         -5.57480        0.04182        1.26946
B         -5.42991       -1.53530        1.27734
B         -0.24695       -0.00362       -1.24564
