45
isomer_2242.log	Energy: -113675.8850366
B          2.50985        1.75944       -0.48938
B          2.42884        3.33438        0.03911
B          1.04931        4.15745        0.12183
B         -0.34960        3.38505       -0.51506
B          1.13017        0.84840       -1.04210
B         -1.78546        0.83091       -0.91008
B         -1.74641        4.14479        0.24624
B          3.95664        0.90961       -0.21548
B         -1.80084        2.53294       -0.48782
B          3.81068        2.53666        0.29175
B         -0.33976        4.74597        0.35164
B         -3.09068        3.28172        0.26610
B         -3.17303        1.68176       -0.26044
B         -4.53134        0.79908        0.23791
B         -0.31370       -1.83105       -1.08813
B         -1.72557       -2.55084       -0.43206
B         -3.12968       -1.73267       -0.22210
B         -4.54667       -0.89264        0.14663
B         -4.32707       -2.49859        0.77061
B         -3.00960       -3.33934        0.27790
B         -1.64353       -4.16942        0.25756
B         -0.27031       -3.40326       -0.53996
B         -0.22188       -4.74857        0.35212
B          2.51155       -3.30418        0.03805
B          1.15470       -4.14965        0.10899
B          2.56247       -1.73159       -0.52938
B          3.86831       -2.48602        0.27722
B          3.98346       -0.84652       -0.22404
B          1.18480       -2.57777       -0.78868
B          1.12029        2.58984       -0.76620
B         -3.29383       -0.01540       -0.60910
B          1.16957       -0.85092       -1.06795
B         -4.40557        2.44540        0.75020
B          5.06088        1.73747        0.86469
B          5.19497        0.04309        0.52360
B          5.10330       -1.65307        0.84666
B          6.10403       -0.70817        1.60646
B          6.08439        0.81254        1.61295
B         -1.71869       -0.84294       -0.79042
B          2.61001        0.01576       -0.74632
B         -0.36829        1.82516       -1.11697
B         -5.47075        1.51944        1.30386
B         -5.61901       -0.03231        1.30589
B         -5.37398       -1.56863        1.33835
B         -0.34300       -0.00334       -1.09463
