45
isomer_2245.log	Energy: -113675.8839510
B          2.51133       -1.75899        0.49012
B          2.43035       -3.33334       -0.04018
B          1.05087       -4.15699       -0.12289
B         -0.34803       -3.38560        0.51540
B          1.13123       -0.84848        1.04350
B         -1.78276       -0.83056        0.90658
B         -1.74443       -4.14493       -0.24674
B          3.95776       -0.90868        0.21672
B         -1.79962       -2.53347        0.48776
B          3.81205       -2.53561       -0.29201
B         -0.33768       -4.74604       -0.35236
B         -3.08889       -3.28221       -0.26619
B         -3.17162       -1.68176        0.25924
B         -4.53278       -0.80144       -0.23390
B         -0.31474        1.83115        1.08930
B         -1.72738        2.55075        0.43346
B         -3.13083        1.73176        0.22263
B         -4.54623        0.89077       -0.14935
B         -4.32876        2.49723       -0.77124
B         -3.01100        3.33809       -0.27877
B         -1.64533        4.16903       -0.25817
B         -0.27150        3.40238        0.53752
B         -0.22380        4.74799       -0.35394
B          2.51045        3.30465       -0.03655
B          1.15287        4.14980       -0.10901
B          2.56145        1.73198        0.52896
B          3.86751        2.48689       -0.27631
B          3.98281        0.84730        0.22406
B          1.18353        2.57811        0.78967
B          1.12182       -2.58971        0.76635
B         -3.29409        0.01510        0.60921
B         -0.34278        0.00306        1.09636
B         -4.40416       -2.44639       -0.75003
B          5.06204       -1.73594       -0.86452
B          5.19459       -0.04150       -0.52396
B          5.10236        1.65479       -0.84679
B          6.10250        0.71043       -1.60758
B          6.08380       -0.81042       -1.61420
B         -1.72038        0.84328        0.79459
B          2.60953       -0.01500        0.74571
B         -0.36665       -1.82591        1.11618
B         -5.46948       -1.52068       -1.30338
B         -5.61903        0.03098       -1.30553
B         -5.37610        1.56772       -1.33876
B          1.16921        0.85040        1.06904
