45
isomer_2249.log	Energy: -111983.1393748
B          2.62217       -1.60383        0.33617
B          2.62298       -3.23172       -0.08525
B          1.22084       -4.06423       -0.34550
B         -0.23964       -3.25534        0.22925
B          1.15804       -0.72917        0.66809
B         -1.71621       -0.77898        0.75989
B         -1.62682       -4.03188       -0.47576
B          4.07514       -0.71896        0.28110
B         -1.62847       -2.36807        0.15862
B          4.02489       -2.39919       -0.21823
B         -0.19824       -4.68274       -0.63552
B         -3.06402       -3.19385       -0.46512
B         -3.09912       -1.58746        0.14228
B         -4.56519       -0.77159       -0.33001
B         -0.29777        1.78375        0.88748
B         -1.68630        2.48573        0.28256
B         -3.13795        1.67219        0.22551
B         -4.58447        0.84680       -0.28868
B         -4.43610        2.41209       -0.49446
B         -3.14148        3.30785       -0.29911
B         -1.72465        4.17932       -0.26610
B         -0.31894        3.40105        0.39921
B         -0.31206        4.87131       -0.39157
B          2.54324        3.46167        0.08565
B          1.12152        4.27276       -0.13262
B          2.58144        1.81485        0.42346
B          3.96449        2.67063       -0.08878
B          4.05503        0.96878        0.32419
B          1.14203        2.61754        0.61041
B          1.20239       -2.44906        0.48104
B         -3.19963       -0.06871        0.57804
B          1.13875        0.88978        0.70942
B         -4.37972       -2.32037       -0.61530
B          5.33815       -1.56606       -0.70464
B          5.31646        0.05847       -0.42915
B          5.29692        1.89491       -0.61626
B          6.47195        0.96978       -1.24535
B          6.49044       -0.58233       -1.28498
B         -1.73581        0.86639        0.80190
B          0.47063       -3.18961        1.69684
B         -0.25668       -1.66501        0.79942
B         -5.89723       -1.62221       -0.80777
B         -6.11285        0.08968       -0.82858
B         -5.93570        1.82148       -0.79047
B          0.43753       -0.47644        0.95867
