45
isomer_2250.log	Energy: -113411.6058356
B         -2.52088       -1.43792       -0.45986
B         -2.49074       -3.15901        0.15910
B         -1.25363       -3.91078        0.87932
B          0.18898       -3.24995       -0.59325
B         -1.26111       -0.68603       -1.10423
B          1.76486       -0.80579       -1.00661
B          1.56679       -3.99618        0.24687
B         -3.89817       -0.71397       -0.08896
B          1.71182       -2.48457       -0.52068
B         -3.81140       -2.28474        0.28472
B          0.09267       -4.51045        0.50087
B          2.93662       -3.21438        0.32236
B          3.15944       -1.65637       -0.38607
B          4.53406       -0.87066        0.16254
B          0.31314        1.80350       -1.00937
B          1.81975        2.61763       -0.50945
B          3.14963        1.71633       -0.25709
B          4.54383        0.85032        0.18843
B          4.40701        2.48030        0.71999
B          3.11077        3.33364        0.26384
B          1.71272        4.13681        0.29786
B          0.29923        3.38723       -0.38175
B          0.28622        4.71831        0.46332
B         -2.52081        3.43945        0.02222
B         -1.14369        4.16268        0.16694
B         -2.59823        1.76842       -0.70398
B         -3.80356        2.61143        0.20136
B         -3.94139        1.02619       -0.19726
B         -1.19116        2.56477       -0.57001
B         -1.27251       -2.37598       -0.95839
B          3.26637        0.01337       -0.62599
B         -1.25168        0.98586       -1.18483
B          4.32510       -2.45402        0.73316
B         -5.13780       -1.48614        0.81531
B         -5.22376        0.15806        0.34239
B         -5.14402        1.79743        0.72199
B         -6.18169        0.91021        1.44420
B         -6.18107       -0.58487        1.47081
B          1.76757        0.94959       -0.91059
B         -1.23280       -4.02226       -0.69690
B          0.29515       -1.54514       -0.97413
B          5.42950       -1.57882        1.28951
B          5.63244       -0.03038        1.26431
B          5.46374        1.52051        1.29628
B          0.28270        0.10638       -1.11825
