45
isomer_2251.log	Energy: -113409.8234006
B          2.51135       -1.70824        0.25589
B          2.41512       -3.32985       -0.25972
B          0.97971       -4.11497       -0.32420
B         -0.37242       -3.31833        0.33302
B          1.17483       -0.78092        0.64143
B         -1.69179       -0.76081        0.98045
B         -1.83873       -4.07241       -0.18646
B          3.92470       -0.96236        0.05845
B         -1.83783       -2.46875        0.52540
B          3.81706       -2.55605       -0.35738
B         -0.44499       -4.70113       -0.44237
B         -3.18306       -3.19870       -0.07514
B         -3.20366       -1.58124        0.47230
B         -4.55957       -0.71281       -0.01572
B         -0.20994        1.78784        1.01291
B         -1.57824        2.57754        0.25474
B         -3.01745        1.77055        0.14828
B         -4.47992        0.98408       -0.08483
B         -4.23302        2.52400       -0.83571
B         -2.86036        3.34446       -0.44655
B         -1.46164        4.12809       -0.44039
B         -0.12884        3.40853        0.51352
B         -0.00870        4.64728       -0.52414
B          2.67615        3.19340       -0.00777
B          1.33317        4.06573       -0.16099
B          2.66091        1.59473        0.66345
B          3.96156        2.31362       -0.14449
B          4.00768        0.73851        0.25915
B          1.31381        2.53174        0.70406
B          1.13426       -2.55411        0.44781
B         -3.22094        0.09721        0.65939
B          1.21239        0.80606        1.01632
B         -4.52727       -2.38319       -0.46525
B          5.21366       -1.77322       -0.72530
B          5.32992       -0.16425       -0.14113
B          5.34377        1.48865       -0.52138
B          6.41900        0.61488       -1.13829
B          6.32294       -0.87354       -1.26413
B         -1.54973        0.85221        0.49693
B         -0.23963        0.05875        1.68291
B         -0.30757       -1.70060        0.88373
B         -5.57612       -1.45460       -1.01713
B         -5.65493        0.09345       -1.11334
B         -5.35046        1.61201       -1.27534
B         -0.21520       -0.06321       -0.04302
