45
isomer_2252.log	Energy: -112822.2981064
B          2.69217       -1.68279        0.31662
B          2.52157       -3.37062       -0.15514
B          1.05109       -4.22435       -0.37494
B         -0.44590       -3.42949        0.28869
B          0.97595       -0.91339        0.84835
B         -1.81107       -0.82618        0.84646
B         -1.84024       -4.10262       -0.47398
B          4.01274       -0.83042        0.26518
B         -1.83711       -2.46299        0.20844
B          3.91351       -2.48683       -0.27289
B         -0.42223       -4.72811       -0.62849
B         -3.19475       -3.21613       -0.46920
B         -3.20536       -1.60363        0.15290
B         -4.58175       -0.66477       -0.34229
B         -0.22821        1.94159        0.90959
B         -1.63301        2.57532        0.30162
B         -3.08101        1.77574        0.24209
B         -4.49814        0.96232       -0.28122
B         -4.36186        2.55434       -0.54411
B         -2.98777        3.39584       -0.29441
B         -1.59463        4.24344       -0.27703
B         -0.22316        3.50028        0.38943
B         -0.18832        4.84977       -0.39471
B          2.59412        3.48847        0.07094
B          1.22665        4.32406       -0.14319
B          2.61654        1.85445        0.46114
B          3.97916        2.56223       -0.10663
B          4.03770        0.93369        0.32971
B          1.21363        2.73927        0.61512
B          1.08796       -2.63938        0.48994
B         -3.25256        0.01251        0.60392
B          1.19596        1.15915        0.77382
B         -4.55658       -2.26216       -0.69143
B          5.18363       -1.67061       -0.76632
B          5.19379       -0.01719       -0.45242
B          5.19967        1.73374       -0.61319
B          6.26929        0.78011       -1.26296
B          6.28541       -0.68665       -1.34304
B         -1.74224        0.93317        0.85660
B          1.91959       -0.21534        0.55270
B         -0.48209       -1.80501        0.94103
B         -5.80055       -1.33817       -0.85690
B         -5.90493        0.23932       -0.84798
B         -5.65746        1.78356       -0.79664
B          0.36080       -3.16552        1.92483
