45
isomer_2253.log	Energy: -113406.6765849
B          2.49771        1.95671       -0.72992
B          2.25807        3.44217        0.04264
B          0.91459        4.14785        0.17739
B         -0.43649        3.38834       -0.48996
B          2.01689        0.44923       -0.80419
B         -1.68896        0.81419       -0.81947
B         -1.90882        4.11364        0.12407
B          3.66780        1.10519       -0.05740
B         -1.93417        2.56132       -0.66001
B          3.65825        2.75799        0.28283
B         -0.51102        4.71606        0.35737
B         -3.25809        3.21859        0.07367
B         -3.19700        1.60506       -0.29640
B         -4.51195        0.60847        0.02852
B         -0.27848       -1.90892       -1.52436
B         -1.16574       -2.29589        0.14540
B         -2.77368       -1.79763        0.01337
B         -4.21034       -0.95943        0.41545
B         -3.98158       -2.57932        0.96325
B         -2.54325       -3.25649        0.66281
B         -1.21943       -4.12840        0.44884
B         -0.08198       -3.37311       -0.56903
B          0.12430       -4.76321        0.20610
B          2.68509       -3.23000       -0.37529
B          1.46462       -4.14509       -0.28167
B          2.46592       -1.47262       -0.53082
B          3.84492       -2.24328        0.07238
B          3.73347       -0.60854       -0.08825
B          1.28646       -2.54413       -1.10202
B          0.98436        2.32233       -0.60738
B         -3.04560       -0.13605       -0.50921
B          1.11949       -0.86176       -1.25863
B         -4.56775        2.30193        0.46982
B          4.88830        1.95250        0.89516
B          4.85405        0.27677        0.71243
B          5.05056       -1.41038        0.79436
B          6.04946       -0.48267        1.49673
B          5.95998        1.03043        1.59503
B         -1.45340       -0.86415       -0.97264
B          0.04376        0.32608       -0.71761
B         -0.46686        1.86655       -1.09153
B         -5.55509        1.31126        0.99681
B         -5.58730       -0.26328        1.13948
B         -5.25737       -1.76094        1.28287
B          0.06629       -1.18736        0.08901
