45
isomer_2254.log	Energy: -113448.5968907
B         -3.01507        0.20252        0.77497
B         -3.49826        1.98334        0.85412
B         -2.50694        3.17790        0.79231
B         -0.87900        2.73589        0.60075
B         -1.40891       -0.02962        1.58974
B          1.30775        0.91706        0.84139
B          0.09398        4.01738        0.04010
B         -4.46868       -0.62767        0.43128
B          0.73695        2.45986        0.39378
B         -4.65344        0.95685        0.62019
B         -1.37804        4.22615        0.43614
B          1.68820        3.64605       -0.31134
B          2.29859        2.16372        0.06800
B          3.87314        1.73460       -0.40664
B          0.95389       -1.73691        1.70083
B          2.27259       -2.25892        0.70272
B          3.37036       -1.02599        0.28522
B          4.46132        0.19929       -0.12969
B          4.61116       -1.45028       -0.79804
B          3.58726       -2.56271       -0.24294
B          2.26485       -3.54470       -0.35136
B          0.87600       -3.42750        0.95905
B          0.96753       -4.12358       -0.63689
B         -0.39086       -1.37637       -0.89765
B          0.46099       -2.74305       -0.90934
B         -1.73996       -1.21398        0.32016
B         -1.94715       -1.18518       -1.45433
B         -3.22787       -1.29362       -0.39076
B         -0.44499       -2.33704        0.51758
B         -1.99456        1.55703        1.26346
B          3.04281        0.65111        0.62415
B         -0.84768       -1.53098        2.01936
B          3.15006        3.26016       -0.92515
B         -5.58003        0.36787       -0.52175
B         -4.68888       -0.92135       -1.19415
B         -3.26217       -1.09285       -2.20443
B         -4.65646       -0.66302       -2.79003
B         -5.75342       -0.02032       -2.01999
B          1.88733       -0.59407        1.13195
B          0.12048       -0.45823        0.53693
B         -0.29989        1.19474        1.08808
B          4.42645        2.69060       -1.55363
B          5.07021        1.28033       -1.52591
B          5.26936       -0.25083       -1.45847
B         -0.14903       -2.95368        2.13027
