45
isomer_2256.log	Energy: -113444.4110982
B          2.51744        1.71309       -0.49912
B          2.49276        3.38979        0.07980
B          1.11414        4.13803        0.19521
B         -0.31167        3.40228       -0.45337
B          1.20273        0.98138       -1.05337
B         -1.73949        0.86565       -0.96506
B         -1.72072        4.09448        0.30870
B          3.87567        0.93501       -0.08162
B         -1.74870        2.50680       -0.44589
B          3.79600        2.55606        0.27553
B         -0.30885        4.68462        0.47666
B         -3.08058        3.24606        0.24399
B         -3.13662        1.66793       -0.29925
B         -4.47755        0.72966        0.15190
B         -0.26712       -1.75833       -1.52234
B         -1.39774       -2.29247        0.29607
B         -2.96660       -1.73430       -0.15318
B         -4.46624       -0.91714        0.06955
B         -4.20339       -2.46378        0.78350
B         -2.82614       -3.23940        0.50560
B         -1.47879       -4.07004        0.36710
B         -0.23570       -3.22236       -0.55879
B         -0.09457       -4.64295        0.26573
B          2.60858       -3.26344       -0.09795
B          1.28040       -4.06301       -0.04263
B          2.61307       -1.57152       -0.54482
B          3.90678       -2.40934        0.11936
B          3.94390       -0.79808       -0.17485
B          1.21094       -2.42735       -0.76809
B          1.18865        2.62886       -0.72446
B         -3.18956       -0.05348       -0.65009
B          1.22946       -0.72470       -0.95423
B         -4.42769        2.37971        0.60967
B          5.10555        1.72330        0.80410
B          5.20145        0.10250        0.36271
B          5.22692       -1.58038        0.66937
B          6.25962       -0.68932        1.35284
B          6.18960        0.80334        1.44826
B         -1.62172       -0.90099       -0.90145
B         -0.08993       -1.34332        0.16762
B         -0.32745        1.82839       -1.09335
B         -5.54691        1.46709        1.06541
B         -5.67973       -0.10065        1.09142
B         -5.41497       -1.61265        1.16023
B         -0.20522        0.03496       -0.88639
