45
isomer_0226.log	Energy: -113441.8204617
B          2.45986       -1.74762        0.39485
B          2.62400       -3.19290       -0.81402
B          1.34241       -4.09640       -0.82599
B          0.05257       -3.24402        0.39143
B          1.27839       -0.64145        1.03316
B         -1.69076       -0.77893        1.01069
B         -1.41517       -3.97295       -0.23837
B          3.68449       -0.66326        0.00732
B         -1.57264       -2.48155        0.57579
B          3.70696       -2.13980       -0.67080
B         -0.09139       -4.49491       -0.67127
B         -2.85790       -3.25820       -0.15378
B         -3.04019       -1.72629        0.32810
B         -4.42006       -0.88157       -0.20716
B         -0.38556        1.88196        0.96918
B         -1.82719        2.55793        0.44500
B         -3.20077        1.69716        0.15551
B         -4.63814        0.75677        0.04169
B         -4.47752        2.38673       -0.70428
B         -3.16580        3.26200       -0.36888
B         -1.79723        4.13423       -0.44431
B         -0.41315        3.41942        0.31915
B         -0.41180        4.74303       -0.58119
B          2.40748        3.43454       -0.08818
B          1.01879        4.20165       -0.28145
B          2.47400        1.80366        0.50193
B          3.82843        2.67250       -0.11494
B          3.76013        1.00367        0.03850
B          1.11203        2.67668        0.58109
B          1.79769       -3.42640        0.57959
B         -3.25606       -0.00743        0.65468
B          1.15454        0.95250        1.05123
B         -4.28923       -2.54075       -0.58206
B          5.14106       -1.34001       -0.71977
B          5.18617        0.19885       -0.08883
B          5.15244        1.90864       -0.48223
B          6.24302        0.97981       -1.07861
B          6.34817       -0.50441       -1.05351
B         -1.76838        0.87049        0.72098
B          1.15399       -2.29564        1.42031
B         -0.28930       -1.65494        1.30771
B         -5.46314       -1.72566       -1.07255
B         -5.69800       -0.18014       -1.10378
B         -5.50805        1.35856       -1.15495
B         -0.24917        0.09444        0.97297
