45
isomer_2260.log	Energy: -113315.4643826
B          2.29509        1.81840       -0.48721
B          2.19539        3.48115       -0.07912
B          0.81500        4.22618       -0.12043
B         -0.57227        3.40586       -0.69688
B          1.03700        0.97283       -1.21663
B         -1.77555        0.74823       -0.92511
B         -1.97083        4.07114        0.10663
B          3.73699        1.09416       -0.06825
B         -1.89851        2.40447       -0.56355
B          3.51438        2.73780        0.28079
B         -0.61482        4.74180        0.20118
B         -3.25236        3.16999        0.15048
B         -3.26310        1.58540       -0.25054
B         -4.50611        0.63672        0.35402
B         -0.37292       -1.56200       -1.13532
B         -1.54489       -2.45496       -0.30051
B         -3.01333       -1.77429       -0.07156
B         -4.46114       -0.99674        0.37853
B         -4.18884       -2.58597        0.91091
B         -2.75587       -3.29184        0.47717
B         -1.30894       -3.97287        0.39296
B         -0.04319       -3.34158       -0.71669
B          0.08462       -4.45983        0.46928
B          2.83841       -3.22077        0.04535
B          1.48545       -4.01155        0.11470
B          2.73705       -1.58347       -0.48423
B          3.97076       -2.20297        0.45931
B          3.95139       -0.61965       -0.08714
B          1.62169       -2.80174       -1.07546
B          0.92956        2.69627       -0.90741
B         -3.22413       -0.12496       -0.41971
B          1.37500       -1.11623       -1.29164
B         -4.57392        2.31026        0.63662
B          4.76810        2.00634        0.99694
B          4.99437        0.37188        0.72571
B          5.14878       -1.28871        1.07236
B          6.06445       -0.30075        1.78959
B          5.86112        1.21310        1.79663
B         -1.70627       -0.81677       -0.76838
B          2.20932        0.12141       -0.54148
B         -0.46827        1.69693       -1.17187
B         -5.60355        1.36460        1.26271
B         -5.67666       -0.20230        1.38693
B         -5.33375       -1.73114        1.48342
B          0.49528       -2.41381       -2.11309
