45
isomer_2261.log	Energy: -113665.0387469
B          2.57287       -1.75014        0.53780
B          2.50364       -3.36044       -0.00651
B          1.10195       -4.11756       -0.07790
B         -0.33810       -3.39917        0.67688
B          2.63443       -0.01504        0.76173
B         -1.80118       -0.88085        0.83348
B         -1.76186       -4.10654       -0.18141
B          3.99011       -0.90306        0.19007
B         -1.82664       -2.56386        0.48832
B          3.85190       -2.53269       -0.29244
B         -0.32098       -4.61521       -0.36280
B         -3.13264       -3.30811       -0.21795
B         -3.21321       -1.68581        0.37612
B         -4.54801       -0.84585       -0.25131
B         -0.32898        1.74631        1.09910
B         -1.78285        2.57322        0.44808
B         -3.17116        1.70888        0.32492
B         -4.52095        0.88441       -0.28558
B         -4.38509        2.50895       -0.76540
B         -3.07808        3.33118       -0.26021
B         -1.69656        4.11791       -0.20672
B         -0.29601        3.40106        0.67149
B         -0.24791        4.61789       -0.36581
B          2.55583        3.34289        0.04262
B          1.16448        4.10856       -0.05966
B          2.60189        1.72817        0.58753
B          3.89064        2.50195       -0.24633
B          4.00161        0.86382        0.20011
B          1.16272        2.52878        0.58592
B          1.12186       -2.53508        0.55215
B         -3.28020        0.01651        0.55947
B          1.16415        0.85885        0.92911
B         -4.42423       -2.47270       -0.72986
B          5.10690       -1.71870       -0.85581
B          5.24478       -0.02387       -0.50840
B          5.12731        1.67636       -0.83596
B          6.12133        0.73499       -1.61383
B          6.11487       -0.78177       -1.62007
B         -1.77983        0.89055        0.81990
B          1.14801       -0.86281        0.87316
B         -0.35608       -1.73835        1.09492
B         -5.45985       -1.53994       -1.34819
B         -5.61999        0.02469       -1.34368
B         -5.44678        1.58955       -1.36258
B         -0.36409        0.00206        1.14553
