45
isomer_2262.log	Energy: -113368.1606047
B          2.62226       -1.79736        0.75886
B          2.49824       -3.28914       -0.56943
B          1.12865       -4.05739       -0.64845
B         -0.25119       -3.28998        0.17681
B          1.32105       -0.60178        1.27678
B         -1.63223       -0.79664        0.93313
B         -1.66639       -4.05791       -0.34394
B          3.84771       -0.87583        0.17450
B         -1.69229       -2.52089        0.66534
B          3.69090       -2.37502       -0.51149
B         -0.32216       -4.62539       -0.71155
B         -3.00832       -3.22537       -0.14945
B         -3.07993       -1.67263        0.34457
B         -4.48403       -0.79095       -0.05712
B         -0.32517        1.89247        1.00408
B         -1.71915        2.58253        0.44418
B         -3.09348        1.75889        0.18155
B         -4.49298        0.85298       -0.17827
B         -4.31539        2.47359       -0.80015
B         -3.00950        3.32110       -0.38047
B         -1.64941        4.19029       -0.41615
B         -0.29807        3.42494        0.37186
B         -0.24670        4.74851       -0.52905
B          2.53596        3.39642        0.02121
B          1.17727        4.16697       -0.19459
B          2.53025        1.65664        0.60998
B          3.82448        2.52514       -0.08430
B          3.91269        0.91675        0.30510
B          1.19470        2.63042        0.61645
B          1.29584       -2.76963        0.43299
B         -3.22432        0.04479        0.61700
B          1.15619        0.97275        1.07134
B         -4.35471       -2.42890       -0.58560
B          4.99713       -1.52010       -0.94717
B          5.07691        0.04851       -0.41163
B          5.12584        1.72978       -0.62626
B          6.09322        0.87952       -1.44783
B          6.02053       -0.58659       -1.61971
B         -1.69660        0.87306        0.81663
B          1.40793       -2.01254        1.85652
B         -0.18252       -1.83340        1.16196
B         -5.42946       -1.54078       -1.13954
B         -5.61585        0.00112       -1.21373
B         -5.41293        1.52968       -1.29279
B         -0.25495        0.05136        1.01782
