45
isomer_2265.log	Energy: -113473.5828977
B          2.41948        1.74267       -0.30734
B          2.24448        3.39308        0.31159
B          0.83686        4.09450        0.43159
B         -0.56004        3.30338       -0.34582
B          1.04272        0.80959       -0.48299
B         -1.88730        0.76332       -0.88452
B         -2.03087        3.98322        0.22517
B          3.90264        1.16078       -0.35034
B         -1.96717        2.39977       -0.55007
B          3.67903        2.61174        0.43747
B         -0.65191        4.57471        0.58814
B         -3.39912        3.13869        0.04806
B         -3.39225        1.55958       -0.51035
B         -4.77603        0.54937       -0.31396
B         -0.18823       -1.74880       -1.24280
B         -1.53400       -2.48282       -0.32145
B         -3.00445       -1.80191       -0.20582
B         -4.40351       -0.99861        0.24509
B         -4.16255       -2.56103        0.87828
B         -2.66281       -3.24514        0.61008
B         -1.16871       -3.71883        0.79596
B          0.05901       -3.15362       -0.34297
B          0.38048       -3.98109        1.00562
B          2.82149       -3.09025       -0.40336
B          1.65937       -3.94115        0.16477
B          2.63630       -1.41152       -0.53912
B          4.14526       -2.11786       -0.16727
B          4.02950       -0.51130       -0.47894
B          1.38735       -2.43612       -1.25282
B          0.96038        2.49441       -0.12030
B         -3.35108       -0.20221       -0.82800
B          1.07099       -0.85603       -0.29094
B         -4.68578        2.24959        0.29940
B          5.11424        2.01373        0.66070
B          5.30529        0.39616        0.14376
B          5.36671       -1.30401        0.34723
B          6.45916       -0.32167        0.98783
B          6.37568        1.16303        1.07253
B         -1.75401       -0.93574       -1.07765
B          1.37927       -2.30974        0.55533
B         -0.44401        1.66128       -0.77144
B         -5.70253        1.21107        0.81939
B         -5.81044       -0.29236        0.93817
B         -5.43139       -1.81368        1.16572
B         -0.30754       -0.03818       -0.94362
