45
isomer_2267.log	Energy: -113458.7433310
B         -2.54782        1.66172        0.63519
B         -2.53558        3.38279        0.05422
B         -1.18680        4.14704       -0.01907
B          0.27602        3.43642        0.65508
B         -1.20167        0.93701        1.07091
B          1.75038        0.92335        0.98582
B          1.64948        4.15825       -0.19785
B         -3.90542        0.91385        0.15298
B          1.71158        2.56939        0.47749
B         -3.79587        2.51497       -0.20244
B          0.22650        4.70788       -0.31317
B          3.01701        3.32168       -0.26829
B          3.08853        1.74552        0.22303
B          4.35991        0.78660       -0.39978
B          0.28782       -1.73440        1.46083
B          1.40736       -2.41439        0.04983
B          2.99919       -1.71993        0.10947
B          4.46052       -0.86893       -0.11087
B          4.20628       -2.50384       -0.76416
B          2.87193       -3.28756       -0.30084
B          1.55438       -4.14174       -0.00577
B          0.22992       -3.33027        0.94203
B          0.17880       -4.71600        0.07837
B         -2.52614       -3.31290       -0.04870
B         -1.22872       -4.12522        0.18904
B         -2.56975       -1.60604        0.43868
B         -3.80629       -2.45138       -0.31145
B         -3.89583       -0.85243        0.10494
B         -1.08897       -2.40778        0.25978
B         -1.19970        2.57693        0.74582
B          3.14996       -0.00106        0.49944
B         -1.21733       -0.74057        0.83552
B          4.33481        2.46364       -0.76665
B         -5.08968        1.69175       -0.77477
B         -5.15307        0.03813       -0.44986
B         -5.11915       -1.60718       -0.86997
B         -6.13038       -0.69731       -1.55876
B         -6.12316        0.79932       -1.52534
B          1.57808       -0.75323        0.51567
B          0.24753        0.00428        1.24646
B          0.32753        1.81857        1.21161
B          5.42755        1.53469       -1.28149
B          5.57165       -0.04231       -1.27446
B          5.31060       -1.56443       -1.26682
B          0.09803       -1.25489       -0.23171
