45
isomer_2268.log	Energy: -112728.6040960
B          2.74593        1.88602       -0.41270
B          2.57090        3.49940       -0.03954
B          1.13374        4.25290        0.17338
B         -0.30916        3.45368       -0.38979
B          0.99243        0.91973       -0.84405
B         -1.81353        0.86964       -0.87848
B         -1.70328        4.16889        0.29793
B          4.04882        0.92958       -0.36184
B         -1.73082        2.53423       -0.31003
B          4.02236        2.62425        0.12655
B         -0.30695        4.78846        0.42779
B         -3.09793        3.31635        0.31601
B         -3.16277        1.72887       -0.24750
B         -4.60210        0.87067        0.23925
B         -0.57887       -1.77612       -0.94256
B         -1.84947       -2.48247       -0.27324
B         -3.21461       -1.65903       -0.22930
B         -4.59424       -0.80630        0.24765
B         -4.54086       -2.42228        0.55354
B         -3.13385       -3.28650        0.33181
B         -1.73286       -4.14394        0.31377
B         -0.29822       -3.49821       -0.33247
B         -0.28161       -4.82006        0.38966
B          2.66499       -3.54093       -0.10284
B          1.25746       -4.39467        0.12493
B          2.65500       -1.76105       -0.34472
B          3.98753       -2.55631        0.05873
B          4.03654       -0.88122       -0.35293
B          1.32713       -2.87992       -0.61942
B          1.16779        2.71206       -0.59046
B         -3.27908        0.09483       -0.63369
B          1.25554       -0.64152       -0.69240
B         -4.50817        2.50248        0.54680
B          5.25889        1.77778        0.59275
B          5.23632        0.09157        0.34475
B          5.23087       -1.68440        0.54877
B          6.35050       -0.72849        1.11223
B          6.40329        0.77624        1.16113
B         -1.86091       -0.83870       -0.88006
B          1.66647        0.88197        0.08944
B         -0.37305        1.81124       -0.95447
B         -5.82751        1.63037        0.74851
B         -5.99017        0.04128        0.77523
B         -5.83518       -1.56894        0.77875
B          0.61271       -1.79140        0.13310
