45
isomer_2270.log	Energy: -113380.6370228
B         -2.02702       -1.42240       -0.09045
B         -2.56120       -3.15201       -0.43427
B         -1.45530       -4.29683       -0.37456
B          0.10280       -3.34997       -0.97338
B         -0.87231       -0.55199       -1.13724
B          1.10593       -0.65784       -0.76274
B          1.41786       -4.04937        0.10040
B         -3.39863       -0.59545        0.35104
B          1.40620       -2.35147       -0.39352
B         -3.63218       -2.18229        0.25900
B         -0.05732       -4.59837        0.10243
B          2.68544       -3.22918        0.26458
B          2.84516       -1.59460       -0.21478
B          4.22639       -0.86325        0.29791
B          0.36719        1.79316       -1.16788
B          1.73410        2.53531       -0.47890
B          3.11657        1.70446       -0.23962
B          4.43738        0.79080        0.29445
B          4.30164        2.42905        0.81794
B          3.06581        3.29828        0.24005
B          1.73937        4.18260        0.13085
B          0.35815        3.48809       -0.70188
B          0.34841        4.84586        0.12355
B         -2.41902        3.54695       -0.21899
B         -1.05414        4.30204       -0.21270
B         -2.46430        1.86305       -0.71197
B         -3.61499        2.71644        0.21972
B         -3.60518        1.07042        0.04388
B         -1.08307        2.65109       -1.02725
B         -1.32530       -2.34402       -1.36580
B          3.09360        0.01724       -0.53999
B         -1.14715        1.03685       -1.25601
B          4.03649       -2.45492        0.81352
B         -4.74747       -1.43969        1.12187
B         -4.74425        0.21583        0.78417
B         -4.94181        1.87160        0.80688
B         -5.98984        0.97591        1.50717
B         -5.84904       -0.51462        1.72500
B          1.67005        0.87813       -0.86057
B         -0.99211       -2.92507        0.42640
B          0.24607       -1.82021       -1.66206
B          5.15567       -1.63289        1.37621
B          5.42582       -0.09819        1.43512
B          5.29462        1.43894        1.46521
B         -0.19910       -1.52747        0.11721
