45
isomer_2272.log	Energy: -113441.9676641
B         -2.45085        1.82357        0.46580
B         -2.37418        3.45203       -0.11235
B         -0.97959        4.21771       -0.28006
B          0.44091        3.42712        0.33795
B         -1.14787        0.95919        1.03359
B          1.77580        0.86159        0.72705
B          1.83415        4.13192       -0.42096
B         -3.72951        1.01838       -0.01611
B          1.84783        2.55117        0.46078
B         -3.79801        2.69142       -0.16000
B          0.45495        4.75235       -0.56187
B          3.19383        3.24718       -0.34800
B          3.21501        1.67975        0.16845
B          4.64457        0.72808        0.04500
B          0.27753       -1.65380        1.30429
B          1.55322       -2.48796        0.56693
B          3.02533       -1.74379        0.31707
B          4.41205       -0.90718       -0.21379
B          4.26537       -2.56338       -0.59835
B          2.82970       -3.27227       -0.16935
B          1.38119       -3.97984       -0.24365
B         -0.07544       -3.24198        0.39378
B          0.05063       -4.49969       -0.66239
B         -2.66159       -3.19392       -0.79717
B         -1.38434       -4.10420       -0.81199
B         -2.47454       -1.74145        0.39340
B         -3.73906       -2.13615       -0.65161
B         -3.68379       -0.64497       -0.00815
B         -1.81946       -3.42118        0.59063
B         -1.08888        2.68707        0.57194
B          3.25585       -0.02791        0.65418
B         -1.28518       -0.63253        1.02315
B          4.49820        2.36284       -0.68941
B         -5.12852        1.93558       -0.50985
B         -5.17603        0.23764       -0.07971
B         -5.16483       -1.31645       -0.68146
B         -6.37057       -0.47238       -0.99824
B         -6.24629        1.00936       -1.06106
B          1.68391       -0.78866        1.00734
B         -1.16993       -2.28409        1.41945
B          0.39899        1.88210        0.97211
B          5.51935        1.32922       -1.14850
B          5.69485       -0.21184       -1.10795
B          5.44576       -1.75484       -1.08638
B          0.24950        0.09516        0.96548
