45
isomer_2273.log	Energy: -113370.7659192
B          0.64295        1.58411       -0.15125
B         -0.02227        2.83514        0.92850
B         -1.38866        3.58713        0.84573
B         -2.43666        3.39414       -0.59976
B         -0.55093        1.25139       -1.41603
B         -2.27319        0.68130       -1.29191
B         -3.96726        3.04698        0.32158
B          2.42538        1.39996        0.14421
B         -3.41873        1.96647       -0.91605
B          1.46554        2.35307        1.11202
B         -2.88212        3.93457        0.83817
B         -4.73923        1.68988        0.05760
B         -3.72831        0.44920       -0.34469
B         -4.07533       -1.04207        0.30435
B          1.44601       -1.55206       -1.21157
B          0.32058       -2.67622       -0.30519
B         -1.30277       -2.12074       -0.22467
B         -2.94290       -2.30020        0.30319
B         -2.10265       -3.62021        0.87945
B         -0.55144       -3.42165        0.79278
B          1.04145       -3.64393        0.92445
B          2.05536       -2.74073       -0.10452
B          2.60172       -3.71483        1.02196
B          4.63270       -1.85646       -0.38444
B          3.70144       -2.95619        0.28091
B          4.06053       -0.60852       -1.31514
B          5.16001       -0.36776       -0.16494
B          3.83034        0.79592       -0.63330
B          2.99706       -1.74288       -1.01325
B         -0.82919        2.60965       -0.40939
B         -2.56338       -0.85221       -0.41768
B          0.65355        0.14993       -1.20243
B         -5.24610        0.18988        0.50467
B          2.90953        2.33676        1.57400
B          4.05784        2.06619        0.36295
B          5.46436        1.09395        0.36084
B          5.62771        2.38597        1.05398
B          4.44731        2.51166        1.88425
B         -1.11007       -0.44598       -1.35016
B          2.34649       -0.00817       -1.02161
B         -1.89932        2.25990       -1.67822
B         -5.51008       -1.22783        0.98535
B         -4.64122       -2.50881        1.04987
B         -3.56539       -3.59966        1.08200
B         -0.14067       -1.56602       -1.45664
