45
isomer_2274.log	Energy: -113420.6256599
B         -2.67678        1.60123        0.71940
B         -2.70920        3.20073        0.06812
B         -1.35754        4.10664       -0.04076
B          0.11837        3.42702        0.56827
B         -1.21967        0.78761        1.00949
B          1.48242        0.82080        0.13555
B          1.44143        4.18270       -0.41048
B         -3.96708        0.69028        0.24535
B          1.52483        2.59496        0.16242
B         -3.96537        2.28589       -0.10539
B         -0.01860        4.69693       -0.42659
B          2.81527        3.37244       -0.51210
B          2.93139        1.73548       -0.07130
B          4.44759        1.02135       -0.07149
B          0.33069       -1.68191        0.75884
B          1.85346       -2.43827        0.58474
B          3.20040       -1.54192        0.53670
B          4.55005       -0.67226        0.05013
B          4.57583       -2.37584       -0.32399
B          3.22289       -3.18016        0.03698
B          1.89598       -4.07436       -0.12088
B          0.41622       -3.29036        0.24454
B          0.50792       -4.72881       -0.39740
B         -2.37500       -3.35529       -0.31230
B         -0.92977       -4.14361       -0.34469
B         -2.50362       -1.75287        0.25277
B         -3.79833       -2.59305       -0.40764
B         -3.87208       -0.97422       -0.05142
B         -1.10496       -2.55290        0.36045
B         -1.31118        2.52436        0.65675
B          3.15080        0.12511        0.60306
B         -1.19319       -0.79552        0.68685
B          4.19947        2.53790       -0.89873
B         -5.36247        1.44418       -0.43575
B         -5.31838       -0.21302       -0.09149
B         -5.18388       -1.81091       -0.76334
B         -6.31553       -0.89344       -1.22527
B         -6.45912        0.58435       -1.01247
B          1.68140       -0.68561        1.09892
B          0.27209        0.11181        1.60695
B          0.21942        1.76452        0.91166
B          5.33710        1.62147       -1.25585
B          5.67042        0.09781       -1.02607
B          5.61865       -1.44156       -0.87846
B          0.17765       -0.13971       -0.11408
