45
isomer_2277.log	Energy: -113478.0266154
B         -2.58445       -1.69624       -0.63861
B         -2.49579       -3.11068        0.41740
B         -1.13667       -3.86933        0.48195
B          0.12565       -3.32056       -0.58495
B         -1.28649       -0.71991       -0.73058
B          1.67013       -0.75734       -0.73282
B          1.63665       -4.12831        0.13569
B         -3.96092       -0.81676       -0.28145
B          1.65269       -2.47676       -0.36908
B         -3.85379       -2.29800        0.37201
B          0.28299       -4.53599        0.54594
B          3.01086       -3.31355        0.08116
B          3.10980       -1.70831       -0.38595
B          4.57551       -0.85713       -0.14688
B          0.35386        1.86539       -1.05411
B          1.76783        2.55180       -0.45328
B          3.15849        1.74552       -0.22941
B          4.49792        0.78105        0.22108
B          4.42847        2.44356        0.72787
B          3.07906        3.28642        0.35126
B          1.71404        4.14636        0.40260
B          0.33056        3.38806       -0.36538
B          0.31051        4.69665        0.56295
B         -2.47650        3.31808        0.06355
B         -1.10101        4.10014        0.27095
B         -2.51787        1.65878       -0.56544
B         -3.82011        2.51011        0.11723
B         -3.93695        0.93131       -0.28898
B         -1.15781        2.60865       -0.64222
B         -1.33676       -2.73603       -1.07211
B          3.25880        0.04374       -0.66866
B         -1.15479        0.90944       -1.02864
B          4.37700       -2.47411        0.46941
B         -5.23196       -1.51250        0.64848
B         -5.28024        0.09094        0.12219
B         -5.20495        1.73600        0.53317
B         -6.29934        0.88541        1.17518
B         -6.31721       -0.58923        1.23422
B          1.78390        0.89193       -0.94685
B         -1.12537       -2.04351        0.53254
B          0.17494       -1.60195       -0.45453
B          5.43982       -1.55585        1.02719
B          5.72589       -0.03637        1.07212
B          5.56582        1.51073        1.14142
B          0.24777        0.05835       -1.06763
