45
isomer_0228.log	Energy: -113455.5881506
B          2.44383       -1.71819        0.53291
B          2.56184       -3.24342       -0.63453
B          1.25275       -4.12760       -0.63254
B          0.00052       -3.28679        0.46391
B          1.03267       -0.64400        1.28125
B         -1.63506       -0.74972        0.71844
B         -1.49889       -4.05765       -0.15134
B          3.78957       -0.72625        0.13284
B         -1.56735       -2.43907        0.45054
B          3.69356       -2.21556       -0.56480
B         -0.16992       -4.59412       -0.51792
B         -2.90996       -3.28187       -0.15618
B         -3.06580       -1.70242        0.17509
B         -4.57486       -0.92268        0.03295
B         -0.46454        1.81182        1.03276
B         -1.86025        2.54315        0.34419
B         -3.22946        1.68871        0.13249
B         -4.57494        0.72403       -0.23205
B         -4.53188        2.34880       -0.80041
B         -3.18988        3.24629       -0.40447
B         -1.85004        4.12387       -0.38931
B         -0.46433        3.45754        0.48528
B         -0.44792        4.75422       -0.44423
B          2.35217        3.46839        0.08239
B          0.95074        4.23734       -0.06462
B          2.43539        1.89290        0.68819
B          3.71838        2.71565       -0.13806
B          3.78567        1.01924        0.14575
B          1.00857        2.67491        0.78503
B          1.75251       -3.39383        0.76513
B         -3.22794        0.00286        0.55025
B          1.03375        0.99191        1.15342
B         -4.29811       -2.55200       -0.56881
B          5.05741       -1.40137       -0.85940
B          5.17098        0.22036       -0.33182
B          4.94016        1.90541       -0.73995
B          5.94924        0.99638       -1.53193
B          6.11531       -0.49448       -1.47923
B         -1.78254        0.89052        0.83077
B          2.40062        0.12702        0.66989
B         -0.31036       -1.57425        0.96031
B         -5.49138       -1.69246       -1.01803
B         -5.77938       -0.18402       -1.08110
B         -5.64854        1.38607       -1.18790
B          1.12768       -2.22561        1.51483
