45
isomer_2282.log	Energy: -113395.6320161
B         -2.62282        1.58686        0.59710
B         -2.61566        3.19177       -0.04208
B         -1.26383        4.05575       -0.16345
B          0.17794        3.37706        0.45961
B         -1.19290        0.83407        1.09211
B          1.63388        0.84810        0.60265
B          1.54906        4.11888       -0.37559
B         -3.98335        0.76849        0.22977
B          1.64878        2.55535        0.32483
B         -3.94148        2.36071       -0.15168
B          0.10022        4.67265       -0.48030
B          2.93746        3.32782       -0.35534
B          3.07269        1.75129        0.19338
B          4.50318        0.92307       -0.08838
B          0.27305       -1.75501        1.04054
B          1.75388       -2.50179        0.50264
B          3.11728       -1.63226        0.36696
B          4.50901       -0.78147       -0.08437
B          4.41844       -2.42903       -0.59576
B          3.07516       -3.23972       -0.16014
B          1.72738       -4.09966       -0.22501
B          0.29751       -3.34744        0.46191
B          0.33398       -4.71271       -0.41701
B         -2.44835       -3.29489       -0.20969
B         -1.06212       -4.10963       -0.26364
B         -2.49675       -1.67177        0.30017
B         -3.80443       -2.50113       -0.35358
B         -3.93343       -0.92517        0.09880
B         -1.16229       -2.54631        0.58749
B         -1.29056        2.52850        0.68615
B          3.22666        0.04715        0.65138
B         -1.13910       -0.76815        0.66114
B          4.29134        2.50087       -0.77953
B         -5.29833        1.57155       -0.58394
B         -5.29341       -0.09184       -0.22414
B         -5.20880       -1.68547       -0.75780
B         -6.29431       -0.81049       -1.32509
B         -6.33256        0.69520       -1.25698
B          1.61976       -0.76989        0.86594
B          0.17294        0.08687        0.01929
B          0.24670        1.76460        1.02482
B          5.35991        1.58200       -1.27459
B          5.62239        0.04145       -1.17507
B          5.48898       -1.51357       -1.13713
B          0.22689       -0.00267        1.71359
