45
isomer_2286.log	Energy: -113382.4904329
B          2.50147        1.80787       -0.55749
B          2.40631        3.41846        0.01607
B          1.03753        4.21476        0.17699
B         -0.38878        3.47777       -0.52646
B          1.12736        1.03196       -1.11156
B         -1.82329        0.90952       -0.97947
B         -1.74377        4.13979        0.34231
B          3.91510        0.99184       -0.23165
B         -1.80946        2.59926       -0.49505
B          3.76617        2.56905        0.25424
B         -0.35051        4.75695        0.46435
B         -3.09877        3.24741        0.36590
B         -3.14710        1.69133       -0.17410
B         -4.51321        0.73272        0.28059
B         -0.30189       -1.60118       -1.12385
B         -1.68525       -2.45864       -0.52956
B         -3.11788       -1.70489       -0.29733
B         -4.54847       -0.94288        0.00588
B         -4.26243       -2.56806        0.65128
B         -2.89725       -3.35545        0.20024
B         -1.49124       -4.04878        0.19189
B         -0.15994       -3.19902       -0.55392
B          0.00635       -4.65153        0.23518
B          2.53280       -3.13875        0.03598
B          1.51210       -4.44304       -0.08548
B          2.67937       -1.41280       -0.64599
B          3.87381       -2.20014        0.28068
B          4.03940       -0.69554       -0.38967
B          1.23767       -2.12931       -0.52639
B          1.13284        2.71348       -0.76087
B         -3.27663        0.00274       -0.64070
B          1.23075       -0.53635       -1.02750
B         -4.38680        2.37356        0.82992
B          4.98555        1.77897        0.88080
B          5.25283        0.17988        0.38091
B          5.22402       -1.51250        0.70055
B          6.27246       -0.61096        1.39514
B          6.07914        0.85236        1.57495
B         -1.70481       -0.77573       -0.82684
B          0.94316       -3.21980        0.69488
B         -0.39354        1.93707       -1.19152
B         -5.46952        1.41395        1.34019
B         -5.59711       -0.13015        1.28416
B         -5.28677       -1.64998        1.25768
B         -0.30174        0.14479       -1.16537
