45
isomer_2287.log	Energy: -112648.5324024
B         -2.59338        1.74802        0.41313
B         -2.57494        3.38902        0.04656
B         -1.16303        4.21335       -0.18535
B          0.28757        3.36862        0.36220
B         -1.13975        0.84566        0.71579
B          1.73483        0.85877        0.80975
B          1.68413        4.15211       -0.31610
B         -4.05655        0.88253        0.32814
B          1.66600        2.46805        0.26211
B         -3.98640        2.57786       -0.11453
B          0.26334        4.82462       -0.45420
B          3.11144        3.29746       -0.33331
B          3.12744        1.67130        0.21986
B          4.58416        0.85465       -0.27926
B          0.28649       -1.69004        0.85103
B          1.66709       -2.38752        0.22316
B          3.12817       -1.58954        0.19370
B          4.58452       -0.76434       -0.29225
B          4.41800       -2.32000       -0.55044
B          3.11290       -3.20662       -0.38549
B          1.68597       -4.06208       -0.38199
B          0.28907       -3.29020        0.30878
B          0.26548       -4.73292       -0.53088
B         -2.57344       -3.30681       -0.00716
B         -1.16116       -4.12668       -0.25226
B         -2.59261       -1.67191        0.38570
B         -3.98526       -2.49381       -0.15522
B         -4.05617       -0.80583        0.31460
B         -1.16278       -2.49719        0.54588
B         -1.16391        2.57126        0.58654
B          3.20996        0.13771        0.60445
B         -1.13938       -0.77388        0.70280
B          4.41694        2.41418       -0.51246
B         -5.30901        1.77692       -0.62885
B         -5.30645        0.14393       -0.40802
B         -5.30824       -1.68531       -0.65663
B         -6.47202       -0.72593       -1.25454
B         -6.47237        0.82674       -1.24209
B          1.73520       -0.78720        0.79654
B         -0.74505       -1.13963        2.26027
B          0.28572        1.75997        0.87871
B          5.92632        1.70519       -0.72797
B          6.12195       -0.00744       -0.80615
B          5.92457       -1.73736       -0.82620
B         -0.55535       -0.68568       -0.50836
