45
isomer_2289.log	Energy: -113264.6383131
B         -2.44746       -1.49992       -0.54262
B         -2.56456       -3.25889       -0.23810
B         -1.22598       -4.06873        0.01051
B          0.22804       -3.41183       -0.64791
B         -0.99381       -0.89535       -1.03561
B          1.52347       -0.81526       -0.96677
B          1.52214       -4.18869        0.34013
B         -3.77437       -0.70516       -0.18088
B          1.49048       -2.42654       -0.26881
B         -3.76956       -2.34492        0.09855
B          0.14345       -4.72416        0.34816
B          2.82391       -3.28208        0.43182
B          2.93277       -1.71183       -0.10559
B          4.27336       -0.83214        0.38003
B          0.44983        1.96321       -1.22379
B          1.80677        2.62714       -0.57129
B          3.09936        1.75560       -0.29632
B          4.40183        0.81871        0.17084
B          4.37901        2.45486        0.64285
B          3.08203        3.35923        0.17413
B          1.72544        4.19483        0.20908
B          0.29936        3.46900       -0.60713
B          0.31563        4.69801        0.37866
B         -2.45609        3.40350       -0.01990
B         -1.09223        4.10300        0.11689
B         -2.57056        1.83371       -0.49915
B         -3.83639        2.59256        0.26519
B         -3.81412        0.94561       -0.20638
B         -1.09158        2.36668       -0.62720
B         -1.20768       -2.60493       -0.98382
B          3.07783       -0.01699       -0.50219
B         -1.89796        0.44106       -0.72552
B          4.17003       -2.48136        0.81929
B         -4.96991       -1.57845        0.88943
B         -4.90189        0.10720        0.67856
B         -5.03774        1.78635        0.86597
B         -6.02415        0.82554        1.57915
B         -5.98611       -0.68284        1.59039
B          1.62330        0.84622       -0.94091
B          0.01404       -1.66258        0.12662
B          0.29818       -1.87264       -1.59162
B          5.32621       -1.57443        1.29249
B          5.52726       -0.06082        1.26941
B          5.35984        1.49432        1.23833
B         -0.23145        0.61419       -1.13498
