45
isomer_0229.log	Energy: -111893.9368035
B         -2.59294        1.74747        0.37885
B         -2.57376        3.38848        0.01233
B         -1.16133        4.21319       -0.21497
B          0.28772        3.36887        0.33731
B         -1.14005        0.84552        0.68625
B          1.73420        0.85942        0.78957
B          1.68626        4.15275       -0.33644
B         -4.05558        0.88158        0.28909
B          1.66671        2.46868        0.24171
B         -3.98446        2.57692       -0.15336
B          0.26574        4.82486       -0.47918
B          3.11386        3.29849       -0.34900
B          3.12850        1.67234        0.20423
B          4.58707        0.85610       -0.29014
B          0.28645       -1.68979        0.82614
B          1.66928       -2.38689        0.20277
B          3.13022       -1.58850        0.17808
B          4.58793       -0.76289       -0.30313
B          4.42268       -2.31860       -0.56186
B          3.11729       -3.20558       -0.40116
B          1.69060       -4.06144       -0.40231
B          0.29123       -3.28994        0.28391
B          0.27078       -4.73268       -0.55582
B         -2.57023       -3.30736       -0.04136
B         -1.15692       -4.12683       -0.28186
B         -2.59113       -1.67246        0.35142
B         -3.98178       -2.49474       -0.19403
B         -4.05469       -0.80678        0.27555
B         -1.16159       -2.49734        0.51626
B         -1.16427        2.57111        0.55691
B          3.21020        0.13878        0.58908
B         -1.13919       -0.77402        0.67326
B          4.42018        2.41558       -0.52390
B         -5.30517        1.77561       -0.67198
B         -5.30287        0.14262       -0.45114
B         -5.30334       -1.68661       -0.69975
B         -6.46544       -0.72756       -1.30145
B         -6.46626        0.82511       -1.28900
B          1.73507       -0.78655        0.77637
B         -1.08006       -0.75147        2.77303
B          0.28463        1.76022        0.85381
B          5.93044        1.70700       -0.73448
B          6.12680       -0.00557       -0.81202
B          5.92998       -1.73554       -0.83270
B         -0.32276       -1.08156        0.08513
