45
isomer_2290.log	Energy: -113414.2853801
B          2.48970       -1.71829        0.21711
B          2.37513       -3.33690       -0.30546
B          0.93601       -4.13057       -0.32236
B         -0.40599       -3.29248        0.29289
B          1.16533       -0.77146        0.63829
B         -1.68445       -0.69996        1.11110
B         -1.87904       -4.08009       -0.08862
B          3.90385       -0.98215        0.04023
B         -1.85143       -2.44031        0.59675
B          3.79129       -2.57767       -0.38368
B         -0.49366       -4.72750       -0.36422
B         -3.20383       -3.18980        0.04331
B         -3.20609       -1.55395        0.56015
B         -4.53124       -0.69938       -0.00800
B         -0.21865        1.76571        0.94807
B         -1.54879        2.59263        0.23170
B         -2.98227        1.78127        0.10408
B         -4.43015        0.98823       -0.14682
B         -4.19118        2.54349       -0.87822
B         -2.83951        3.38593       -0.42945
B         -1.44850        4.17635       -0.37790
B         -0.11279        3.40908        0.55340
B          0.00874        4.67886       -0.44204
B          2.69351        3.17142        0.02653
B          1.34876        4.07445       -0.09000
B          2.67073        1.58416        0.71122
B          3.96229        2.27440       -0.12013
B          3.99921        0.70327        0.29124
B          1.31263        2.51308        0.66346
B          1.10216       -2.54334        0.37474
B         -3.17203        0.11939        0.63355
B          1.19933        0.79387        1.02646
B         -4.52805       -2.38678       -0.39539
B          5.18141       -1.79712       -0.75757
B          5.31822       -0.19892       -0.13440
B          5.35108        1.45382       -0.47902
B          6.42170        0.59248       -1.10654
B          6.29468       -0.88992       -1.27980
B         -1.51115        0.82915        0.23630
B         -0.28458        0.11258        1.61488
B         -0.33531       -1.67203        0.77263
B         -5.53370       -1.45747       -1.01506
B         -5.59721        0.08451       -1.14996
B         -5.28821        1.61572       -1.33633
B         -0.24796       -0.09778       -0.07715
