45
isomer_2292.log	Energy: -113458.7340037
B          2.54818        1.66161       -0.63408
B          2.53575        3.38196       -0.05058
B          1.18760        4.14673        0.02302
B         -0.27514        3.43807       -0.65482
B          1.20027        0.93856       -1.06832
B         -1.74951        0.92443       -0.98468
B         -1.64861        4.15890        0.19970
B          3.90556        0.91281       -0.15245
B         -1.70880        2.57022       -0.47727
B          3.79633        2.51323        0.20444
B         -0.22531        4.70705        0.31771
B         -3.01595        3.32235        0.26830
B         -3.08816        1.74687       -0.22432
B         -4.35977        0.78695        0.39805
B         -0.28781       -1.73501       -1.46006
B         -1.41105       -2.41309       -0.05236
B         -3.00218       -1.72055       -0.11231
B         -4.46225       -0.86898        0.10962
B         -4.20880       -2.50405        0.76288
B         -2.87365       -3.28758        0.30222
B         -1.55335       -4.14096        0.01076
B         -0.23056       -3.33054       -0.93760
B         -0.17940       -4.71777       -0.07560
B          2.52549       -3.31242        0.04962
B          1.22648       -4.12407       -0.18545
B          2.57019       -1.60575       -0.43826
B          3.80702       -2.45276        0.30965
B          3.89707       -0.85305       -0.10716
B          1.09007       -2.40581       -0.25960
B          1.19984        2.57814       -0.74211
B         -3.15038       -0.00118       -0.49982
B          1.21611       -0.73807       -0.82962
B         -4.33548        2.46374        0.76424
B          5.09155        1.68992        0.77353
B          5.15632        0.03660        0.44485
B          5.12151       -1.60871        0.86528
B          6.13432       -0.69920        1.55289
B          6.12626        0.79737        1.52127
B         -1.57947       -0.75233       -0.51629
B         -0.24775        0.00367       -1.25016
B         -0.32643        1.81999       -1.21097
B         -5.42913        1.53479        1.27759
B         -5.57317       -0.04250        1.27139
B         -5.31279       -1.56480        1.26480
B         -0.10103       -1.25478        0.23211
