45
isomer_2293.log	Energy: -113297.2980029
B          2.06461        1.61883       -0.62032
B          1.75079        3.30825        0.00334
B          0.33655        3.98212        0.08819
B         -1.02102        3.13219       -0.48338
B          0.68631        0.80381       -1.05524
B         -2.23038        0.57702       -1.01320
B         -2.48035        3.85776        0.06264
B          3.71610        1.17654       -0.32860
B         -2.40163        2.20619       -0.65281
B          3.09970        2.64498        0.26823
B         -1.13193        4.52115        0.28696
B         -3.78030        2.88902        0.05079
B         -3.75937        1.27361       -0.42613
B         -4.95475        0.17223        0.12974
B          0.64321       -0.86660       -1.36567
B         -1.34448       -2.47817       -0.58183
B         -2.92708       -1.95711       -0.15629
B         -4.41417       -1.39516        0.44012
B         -3.70685       -2.80689        1.12324
B         -2.23788       -3.31670        0.55593
B         -0.75535       -3.63173        0.47123
B          0.37264       -2.66410       -0.91878
B          0.77062       -3.67088        0.53573
B          3.31650       -2.61362       -0.03767
B          2.23321       -3.23300        0.85996
B          3.42148       -0.96493       -0.75811
B          4.67314       -1.78774        0.13409
B          4.73841       -0.25964       -0.47268
B          2.03796       -1.78129       -1.08186
B          0.52071        2.40125       -0.59767
B         -3.61124       -0.45637       -0.74135
B          2.04971       -0.07785       -0.90714
B         -4.84976        1.91511        0.69524
B          4.32375        2.16938        1.11790
B          5.11730        0.78966        0.65335
B          5.75920       -0.80980        0.79560
B          6.16900        0.28200        1.81643
B          5.47189        1.60892        1.99261
B         -2.07326       -1.02829       -1.29026
B          1.84942       -3.35423       -0.69932
B         -0.89339        1.48117       -1.00477
B         -5.52404        0.81328        1.49985
B         -5.45903       -0.70767        1.63694
B         -4.90610       -2.17117        1.75104
B         -0.65983       -1.59157       -1.77609
