45
isomer_2294.log	Energy: -111761.3283737
B          2.61579       -1.60153        0.33744
B          2.62457       -3.22987       -0.08213
B          1.22642       -4.07044       -0.33789
B         -0.23707       -3.26901        0.23961
B          1.14766       -0.73462        0.67206
B         -1.72602       -0.80027        0.77116
B         -1.62169       -4.05405       -0.46100
B          4.06368       -0.70867        0.27770
B         -1.63098       -2.38954        0.17149
B          4.02150       -2.38973       -0.21959
B         -0.18992       -4.69716       -0.62363
B         -3.06349       -3.22399       -0.44769
B         -3.10597       -1.61713        0.15796
B         -4.57774       -0.80995       -0.31155
B         -0.32151        1.77043        0.89227
B         -1.71544        2.46400        0.29005
B         -3.16269        1.64235        0.23759
B         -4.60590        0.80837       -0.27202
B         -4.46673        2.37421       -0.47995
B         -3.17662        3.27737       -0.28888
B         -1.76457        4.15672       -0.26043
B         -0.35289        3.38703        0.40221
B         -0.35616        4.85639       -0.39026
B          2.50811        3.46317        0.08137
B          1.08136        4.26610       -0.13424
B          2.55630        1.81697        0.42095
B          3.93328        2.67982       -0.09575
B          4.03431        0.97898        0.31893
B          1.11293        2.61188        0.61062
B          1.20109       -2.45445        0.48685
B         -3.21382       -0.09845        0.59225
B          1.11949        0.88424        0.71160
B         -4.38439       -2.35799       -0.59554
B          5.32889       -1.54988       -0.71025
B          5.29888        0.07481       -0.43656
B          5.26867        1.91090       -0.62571
B          6.44723        0.99158       -1.25670
B          6.47423       -0.56044       -1.29461
B         -1.75465        0.84501        0.81136
B          1.10702       -2.55746        2.14130
B         -0.26150       -1.67814        0.80803
B         -5.90623       -1.66849       -0.78499
B         -6.13140        0.04215       -0.80719
B         -5.96378        1.77495       -0.77150
B          0.51976       -0.55616        0.25526
