45
isomer_2295.log	Energy: -113222.2673910
B          2.62838       -1.57756        0.99238
B          2.68377       -3.20142       -0.01139
B          1.41217       -3.98718       -0.43722
B         -0.09773       -3.17171       -0.13301
B          1.08023       -0.54341        0.52721
B         -1.50106       -0.80153        0.85518
B         -1.45423       -4.08893       -0.52019
B          3.92335       -0.67463        0.41451
B         -1.52259       -2.40218        0.15406
B          3.91465       -2.27065        0.03726
B         -0.01729       -4.65876       -0.67413
B         -2.86819       -3.25849       -0.40722
B         -3.01583       -1.76459        0.21618
B         -4.38580       -0.88629       -0.18674
B         -0.33975        1.83623        0.91604
B         -1.83320        2.55062        0.53559
B         -3.17590        1.67459        0.38060
B         -4.56240        0.73134        0.08956
B         -4.56328        2.38657       -0.41447
B         -3.20614        3.23699       -0.13436
B         -1.84120        4.12925       -0.28989
B         -0.42211        3.47960        0.40239
B         -0.46472        4.73999       -0.56388
B          2.36874        3.42587       -0.31294
B          0.98244        4.20573       -0.38289
B          2.46769        1.81234        0.33150
B          3.74329        2.60690       -0.36534
B          3.87316        1.07557        0.24377
B          1.06042        2.66113        0.37478
B          1.28962       -2.28306        0.11930
B         -3.12545       -0.05946        0.58996
B          1.02539        1.01500        0.70646
B         -4.33033       -2.54366       -0.59040
B          5.21655       -1.44618       -0.41925
B          5.16622        0.20724       -0.19876
B          5.13469        1.82110       -0.71375
B          6.23506        0.91630       -1.25354
B          6.27074       -0.56326       -1.14297
B         -1.68598        0.82476        0.80703
B          1.29242       -1.63648        1.82925
B         -0.19990       -1.68298        1.48872
B         -5.56376       -1.68875       -0.90322
B         -5.78970       -0.15946       -0.87292
B         -5.64156        1.41073       -0.85745
B         -0.16088       -1.39727       -0.22579
