45
isomer_2296.log	Energy: -111726.1807727
B         -2.61256       -1.65897       -0.48989
B         -2.60775       -3.29758       -0.11235
B         -1.20299       -4.13026        0.13283
B          0.25653       -3.29943       -0.41228
B         -1.15094       -0.76890       -0.79048
B          1.72394       -0.80287       -0.86843
B          1.64377       -4.08820        0.27892
B         -4.07001       -0.78265       -0.41873
B          1.64073       -2.40794       -0.31053
B         -4.01429       -2.47544        0.03555
B          0.21752       -4.74975        0.41361
B          3.07698       -3.24351        0.29836
B          3.10751       -1.62123       -0.26549
B          4.56722       -0.81155        0.23626
B          0.29393        1.75574       -0.93463
B          1.67596        2.44766       -0.30376
B          3.13117        1.63962       -0.26094
B          4.57897        0.80745        0.23852
B          4.42204        2.36593        0.48547
B          3.12417        3.26059        0.30743
B          1.70338        4.12604        0.29037
B          0.30485        3.35942       -0.40299
B          0.28687        4.80784        0.42694
B         -2.55916        3.39829       -0.10301
B         -1.14248        4.20981        0.14446
B         -2.58774        1.76098       -0.48512
B         -3.97749        2.59625        0.04262
B         -4.05776        0.90572       -0.41638
B         -1.15125        2.57509       -0.64286
B         -1.18802       -2.49339       -0.64992
B          3.20300       -0.09086       -0.65977
B         -1.13919        0.85064       -0.78822
B          4.38769       -2.36828        0.47887
B         -5.33401       -1.66180        0.53723
B         -5.31868       -0.03038        0.30559
B         -5.30888        1.80044        0.54205
B         -6.48269        0.85329        1.13986
B         -6.49395       -0.69939        1.13770
B          1.73588        0.84311       -0.86614
B         -0.69953       -0.54088        2.08193
B          0.26890       -1.69429       -0.93944
B          5.90084       -1.66850        0.69802
B          6.10815        0.04319        0.76593
B          5.92292        1.77455        0.77341
B         -0.18356       -0.79562       -0.67056
