45
isomer_2297.log	Energy: -113115.1036795
B          2.59985       -1.73888        0.51116
B          2.53277       -3.43922        0.15432
B          1.09833       -4.16838       -0.09918
B         -0.38477       -3.39256        0.30924
B          1.65710       -0.53023        0.67419
B         -1.81981       -0.79790        0.89125
B         -1.76419       -4.10700       -0.42638
B          3.95506       -0.87167        0.34441
B         -1.87849       -2.52400        0.23415
B          3.88412       -2.57899       -0.02446
B         -0.34248       -4.72516       -0.48391
B         -3.17064       -3.22970       -0.42092
B         -3.22270       -1.64890        0.16925
B         -4.56303       -0.74098       -0.29272
B         -0.22414        1.75321        0.93751
B         -1.58942        2.46606        0.33965
B         -3.03778        1.72659        0.25607
B         -4.45173        0.92027       -0.24539
B         -4.33287        2.58505       -0.56512
B         -2.93545        3.30259       -0.28912
B         -1.56764        4.13268       -0.30728
B         -0.18583        3.39958        0.36650
B         -0.16421        4.74178       -0.48717
B          2.65255        3.44053       -0.06551
B          1.29830        4.20909       -0.23169
B          2.67136        1.73998        0.32477
B          4.00557        2.49438       -0.28638
B          4.01076        0.86257        0.25477
B          1.28437        2.65507        0.52462
B          1.20970       -2.66375        0.58278
B         -3.22406        0.00778        0.59502
B          1.28299        1.01889        0.60027
B         -4.59925       -2.40651       -0.67105
B          5.13882       -1.80246       -0.62239
B          5.16506       -0.09716       -0.47706
B          5.20498        1.61502       -0.76556
B          6.32410        0.59553       -1.33272
B          6.28096       -0.91660       -1.26751
B         -1.70679        0.87914        0.90178
B          0.49459        0.51007        1.90765
B         -0.62872       -1.83584        0.99121
B         -5.77904       -1.47517       -0.91364
B         -5.85886        0.16365       -0.89145
B         -5.61444        1.72541       -0.87368
B          0.29499       -1.25387        0.16972
