45
isomer_2298.log	Energy: -113099.3036305
B          2.57269        1.73961       -0.41587
B          2.54112        3.37775       -0.03313
B          1.12746        4.19514        0.20101
B         -0.31713        3.35970       -0.35351
B          1.13119        0.84706       -0.73204
B         -1.76360        0.85144       -0.82268
B         -1.71683        4.13221        0.32854
B          4.03890        0.88134       -0.33009
B         -1.69889        2.45876       -0.26292
B          3.94954        2.56489        0.12379
B         -0.29611        4.79332        0.47164
B         -3.13949        3.28056        0.33841
B         -3.15687        1.65819       -0.22657
B         -4.61180        0.83245        0.26342
B         -0.30056       -1.71757       -0.88141
B         -1.68636       -2.42186       -0.24873
B         -3.14809       -1.61715       -0.21908
B         -4.60315       -0.79030        0.26421
B         -4.43761       -2.35442        0.52247
B         -3.11651       -3.23989        0.35185
B         -1.68554       -4.09281        0.34600
B         -0.29241       -3.32072       -0.34117
B         -0.26097       -4.75059        0.48586
B          2.57910       -3.33187       -0.01916
B          1.16511       -4.15132        0.21474
B          2.60399       -1.69871       -0.39928
B          3.99991       -2.50574        0.13822
B          4.05734       -0.80696       -0.32765
B          1.16244       -2.52568       -0.57193
B          1.14048        2.56592       -0.58218
B         -3.23570        0.12097       -0.62205
B          1.13098       -0.77043       -0.72158
B         -4.45849        2.39975        0.51450
B          5.27358        1.77532        0.63809
B          5.28352        0.14204        0.40458
B          5.29895       -1.68372        0.63503
B          6.43985       -0.71635        1.24155
B          6.43365        0.82861        1.24465
B         -1.76122       -0.79392       -0.81755
B          2.41683       -0.53147       -0.92662
B         -0.30925        1.75727       -0.88527
B         -5.94006        1.66149        0.71539
B         -6.12309       -0.03020        0.77736
B         -5.92466       -1.73999        0.78790
B         -0.36223       -0.63215       -0.26874
