45
isomer_2299.log	Energy: -113477.5963736
B         -2.58008       -1.70721       -0.62876
B         -2.49027       -3.11236        0.43076
B         -1.12899       -3.86214        0.50864
B          0.12737       -3.32913       -0.57872
B         -1.28599       -0.72394       -0.71386
B          1.66881       -0.75731       -0.72551
B          1.64731       -4.12844        0.14717
B         -3.94120       -0.80734       -0.26502
B          1.65059       -2.47686       -0.33686
B         -3.85176       -2.29610        0.38275
B          0.29375       -4.52145        0.57329
B          3.02023       -3.31150        0.07322
B          3.11108       -1.70399       -0.38527
B          4.57777       -0.85115       -0.15959
B          0.34965        1.86552       -1.04200
B          1.76547        2.55430       -0.45327
B          3.15590        1.74734       -0.23155
B          4.50285        0.78769        0.20469
B          4.42892        2.45097        0.71770
B          3.07784        3.28910        0.34797
B          1.71037        4.14670        0.41174
B          0.32612        3.38428       -0.34682
B          0.30765        4.69693        0.57442
B         -2.48234        3.31692        0.07248
B         -1.10533        4.09803        0.28528
B         -2.52189        1.65591       -0.56042
B         -3.82522        2.50880        0.12263
B         -3.94108        0.93265       -0.28819
B         -1.16040        2.60384       -0.62355
B         -1.33891       -2.75061       -1.06979
B          3.26015        0.04717       -0.67778
B         -1.15853        0.90549       -1.01763
B          4.38631       -2.46803        0.45397
B         -5.23123       -1.51502        0.63933
B         -5.29005        0.08443        0.09543
B         -5.22050        1.73140        0.51229
B         -6.32336        0.88008        1.13423
B         -6.32978       -0.59540        1.20478
B          1.77982        0.89204       -0.94320
B         -1.10881       -2.04469        0.52580
B          0.17883       -1.61509       -0.50429
B          5.44665       -1.54917        1.00988
B          5.72873       -0.02893        1.05879
B          5.56531        1.51644        1.13233
B          0.24822        0.05983       -1.06750
