45
isomer_2300.log	Energy: -113500.5836330
B          2.76762        1.51232       -0.82546
B          2.77142        3.15753       -0.40402
B          1.47784        4.08321       -0.24658
B         -0.02140        3.34571       -0.68371
B          1.33281        0.69212       -1.29938
B         -1.68775        0.94779       -1.02123
B         -1.28339        4.24536        0.10827
B          4.08624        0.64168       -0.28042
B         -1.53050        2.64136       -0.63686
B          4.02174        2.26194        0.04832
B          0.15298        4.76935        0.04140
B         -2.67899        3.46342        0.29249
B         -2.94758        1.91988       -0.20536
B         -4.30049        1.07627        0.41431
B         -0.39853       -1.72257       -1.35751
B         -1.50997       -2.28646       -0.18602
B         -3.04440       -1.52072       -0.15521
B         -4.34741       -0.58705        0.49661
B         -4.09986       -2.21334        1.02836
B         -2.93046       -3.08059        0.31380
B         -1.62860       -4.01978       -0.05221
B         -0.46170       -3.37140       -1.44721
B         -0.36407       -4.73108       -0.43765
B          1.75974       -2.96238        0.33888
B          1.04779       -4.11505       -0.57674
B          2.30037       -1.42829       -0.46326
B          3.06137       -2.15895        0.89426
B          3.74179       -0.95556       -0.01720
B          1.11567       -2.49050       -1.18835
B          1.41399        2.40864       -0.93772
B         -3.21599        0.20589       -0.51996
B          1.14971       -0.81970       -1.53410
B         -3.97510        2.71942        0.93832
B          5.03891        1.47745        0.93058
B          4.97703       -0.22290        0.85868
B          4.37004       -1.67159        1.55429
B          5.51660       -0.87472        2.24899
B          5.78476        0.56011        1.99920
B         -1.70041       -0.67805       -0.88659
B         -0.03911       -2.97902        0.27408
B         -0.17328        1.81013       -1.23442
B         -4.99413        1.85200        1.63988
B         -5.21828        0.30413        1.72246
B         -5.05198       -1.26122        1.74894
B         -0.28506        0.05519       -1.29495
