45
isomer_2301.log	Energy: -113382.0885300
B         -2.52953        1.62067        0.53404
B         -2.51154        3.32106        0.12035
B         -1.16599        4.11409       -0.01872
B          0.27086        3.32251        0.45916
B         -1.22300        0.74102        1.03584
B          1.75131        0.86578        0.74213
B          1.65217        4.14294       -0.27111
B         -3.93635        0.91982        0.13977
B          1.73778        2.51356        0.37644
B         -3.85218        2.54036       -0.05279
B          0.22538        4.72295       -0.31577
B          3.03982        3.34146       -0.30852
B          3.14616        1.73462        0.16433
B          4.57554        0.88563       -0.16052
B          0.49041       -1.71004        1.42711
B          1.74370       -2.47028        0.44043
B          3.18009       -1.65803        0.27979
B          4.53668       -0.78977       -0.19941
B          4.39210       -2.40834       -0.75207
B          3.01848       -3.21206       -0.27541
B          1.60375       -3.92636       -0.37668
B          0.13860       -3.28288        0.53188
B          0.20088       -4.34167       -0.70781
B         -2.60975       -3.17981       -0.45360
B         -1.19752       -3.83807       -0.56597
B         -2.55618       -1.54407        0.26291
B         -3.86787       -2.31675       -0.53694
B         -3.97024       -0.80421        0.02084
B         -1.59586       -2.81901        0.80867
B         -1.19005        2.49005        0.78592
B          3.34408        0.03778        0.64024
B         -1.18982       -0.93809        1.05533
B          4.36342        2.51509       -0.78205
B         -5.18464        1.79879       -0.65501
B         -5.22980        0.13724       -0.43680
B         -5.24457       -1.47060       -0.92877
B         -6.31955       -0.53983       -1.47946
B         -6.26523        0.96166       -1.39413
B          1.78033       -0.78294        0.89809
B         -0.67582       -2.49162        1.95409
B          0.30532        1.73748        1.02470
B          5.42577        1.57309       -1.32999
B          5.64400        0.03870       -1.31048
B          5.46236       -1.51547       -1.30175
B          0.28652       -0.03644        0.91171
