45
isomer_2304.log	Energy: -113675.8854156
B         -2.50973       -1.75965       -0.48915
B         -2.42827       -3.33478        0.03899
B         -1.04827       -4.15722        0.12224
B          0.35054       -3.38491       -0.51499
B         -1.12992       -0.84862       -1.04228
B          1.78629       -0.83082       -0.91210
B          1.74734       -4.14443        0.24605
B         -3.95650       -0.90993       -0.21543
B          1.80154       -2.53263       -0.48818
B         -3.81041       -2.53705        0.29186
B          0.34082       -4.74591        0.35161
B          3.09116       -3.28067        0.26691
B          3.17306       -1.68062       -0.25925
B          4.53202       -0.79825        0.23797
B          0.31302        1.83065       -1.08729
B          1.72488        2.55150       -0.43151
B          3.12876        1.73283       -0.22037
B          4.54702        0.89377        0.14526
B          4.32653        2.49916        0.77065
B          3.00878        3.34013        0.27870
B          1.64242        4.16986        0.25788
B          0.26938        3.40271       -0.53938
B          0.22038        4.74817        0.35232
B         -2.51296        3.30391        0.03710
B         -1.15612        4.14938        0.10871
B         -2.56289        1.73094       -0.53060
B         -3.86905        2.48554        0.27652
B         -3.98385        0.84593       -0.22379
B         -1.18563        2.57770       -0.78886
B         -1.11966       -2.58968       -0.76551
B          3.29358        0.01548       -0.60877
B         -1.17011        0.85072       -1.07012
B          4.40640       -2.44475        0.75036
B         -5.06100       -1.73839        0.86443
B         -5.19528       -0.04391        0.52358
B         -5.10373        1.65230        0.84645
B         -6.10376        0.70710        1.60693
B         -6.08407       -0.81364        1.61326
B          1.71838        0.84307       -0.78815
B         -2.60938       -0.01600       -0.74518
B          0.36888       -1.82495       -1.11700
B          5.47301       -1.51892        1.30193
B          5.61998        0.03286        1.30474
B          5.37332        1.56906        1.33813
B          0.34310        0.00294       -1.09464
