45
isomer_2305.log	Energy: -113393.5902879
B          2.66435       -1.58364        0.61467
B          2.59935       -3.19553        0.03399
B          1.27889       -4.08737       -0.09745
B         -0.20047       -3.35377        0.43480
B          1.15993       -0.79861        1.05116
B         -1.67986       -0.82107        0.66802
B         -1.51209       -4.14871       -0.33877
B          4.06634       -0.74790        0.38353
B         -1.65404       -2.54698        0.40885
B          3.97620       -2.32059       -0.15175
B         -0.09551       -4.72976       -0.37489
B         -2.93391       -3.31072       -0.36514
B         -3.09771       -1.77939        0.16392
B         -4.49599       -0.88003       -0.20360
B         -0.30274        1.72194        0.97381
B         -1.76348        2.50630        0.62152
B         -3.17941        1.70205        0.33801
B         -4.52343        0.76078       -0.14064
B         -4.42816        2.43107       -0.60314
B         -3.06919        3.23896       -0.17734
B         -1.69826        4.12177       -0.18701
B         -0.31787        3.32490        0.44895
B         -0.31180        4.71930       -0.34771
B          2.47516        3.27208       -0.12982
B          1.10160        4.10158       -0.20472
B          2.59091        1.64263        0.38237
B          3.87280        2.43165       -0.38514
B          4.03510        0.91438        0.30718
B          1.19306        2.49704        0.46498
B          1.29654       -2.50942        0.67304
B         -3.25596       -0.05281        0.58011
B          1.13195        0.75739        0.72259
B         -4.30172       -2.50041       -0.81830
B          5.24561       -1.59880       -0.68502
B          5.29571        0.07591       -0.41949
B          5.18243        1.72991       -0.83679
B          6.33791        0.81106       -1.40851
B          6.35039       -0.67844       -1.36140
B         -1.70376        0.77639        0.90790
B         -0.27212        0.00484        1.74170
B         -0.26563       -1.75807        0.99695
B         -5.39501       -1.58185       -1.32058
B         -5.64342       -0.03209       -1.22581
B         -5.50968        1.51874       -1.14605
B         -0.24302       -0.04474        0.01103
