45
isomer_2306.log	Energy: -111757.8404132
B         -2.61824       -1.61866       -0.43167
B         -2.63020       -3.25600       -0.04884
B         -1.23390       -4.10319        0.19493
B          0.23299       -3.29012       -0.35711
B         -1.14788       -0.74559       -0.73939
B          1.72621       -0.81122       -0.82562
B          1.61357       -4.09178        0.33258
B         -4.06582       -0.72625       -0.35910
B          1.62713       -2.41348       -0.26229
B         -4.02724       -2.41808        0.10050
B          0.18058       -4.73727        0.47358
B          3.05596       -3.26274        0.34512
B          3.10254       -1.64271       -0.22406
B          4.57247       -0.84742        0.27081
B          0.32403        1.76265       -0.89593
B          1.71539        2.44143       -0.27134
B          3.16181        1.61769       -0.23014
B          4.60190        0.77135        0.26779
B          4.46273        2.33224        0.51015
B          3.17418        3.24046        0.33300
B          1.76288        4.12132        0.31728
B          0.35402        3.36780       -0.36952
B          0.35430        4.81898        0.45577
B         -2.50849        3.43893       -0.06132
B         -1.08231        4.23571        0.17939
B         -2.55607        1.80081       -0.43804
B         -3.93505        2.65290        0.09105
B         -4.03513        0.96188       -0.36225
B         -1.11125        2.59866       -0.60260
B         -1.20338       -2.46910       -0.59315
B          3.21356       -0.11474       -0.62357
B         -1.11844        0.87374       -0.74241
B          4.37668       -2.40130        0.51898
B         -5.33651       -1.58846        0.60338
B         -5.30406        0.04195        0.36642
B         -5.27358        1.87329        0.59693
B         -6.45589        0.94095        1.20122
B         -6.48411       -0.61152        1.20411
B          1.75613        0.83454       -0.82869
B         -1.62450       -2.02761       -0.10222
B          0.26132       -1.68690       -0.88950
B          5.89801       -1.71741        0.73145
B          6.12420       -0.00787        0.79321
B          5.95790        1.72542        0.79563
B          0.14157        0.13673       -0.42451
