45
isomer_2307.log	Energy: -113522.6729879
B          2.43877       -1.84190        0.63784
B          2.19927       -3.06491       -0.51375
B          0.81939       -3.77006       -0.66680
B         -0.34322       -3.35218        0.60968
B          1.05277       -0.85095        0.84187
B         -1.79475       -0.75468        0.73619
B         -1.97322       -4.04781       -0.17985
B          3.94291       -0.96881        0.30898
B         -1.83231       -2.47700        0.40204
B          3.68435       -2.41134       -0.46270
B         -0.61916       -4.33300       -0.71387
B         -3.27567       -3.19383       -0.06659
B         -3.24733       -1.58047        0.36357
B         -4.64021       -0.64346        0.03418
B         -0.28318        1.66689        0.76621
B         -1.64813        2.49383        0.21197
B         -3.14580        1.80900        0.19911
B         -4.63579        1.02623        0.15159
B         -4.38929        2.64135       -0.60322
B         -2.99636        3.37658       -0.34034
B         -1.55307        4.13475       -0.45058
B         -0.20999        3.34528        0.25895
B         -0.11698        4.68778       -0.56713
B          2.64727        3.27467        0.08117
B          1.26737        4.08181       -0.18891
B          2.63448        1.67138        0.61307
B          4.01218        2.45550        0.00102
B          4.04043        0.78167        0.48658
B          1.22708        2.49306        0.57677
B          1.12489       -2.76085        1.12360
B         -3.26839        0.14720        0.68119
B          1.14012        0.81077        0.89711
B         -4.60930       -2.28190       -0.44488
B          5.05030       -1.70724       -0.77040
B          5.32837       -0.08923       -0.17521
B          5.29282        1.62233       -0.42928
B          6.32495        0.70567       -1.16131
B          6.19673       -0.77544       -1.34369
B         -1.66444        0.84937        0.59862
B          0.73892       -2.07060       -0.43102
B         -0.39586       -1.61256        0.84628
B         -5.73271       -1.36314       -0.86664
B         -5.84731        0.21343       -0.88417
B         -5.53376        1.70404       -1.00440
B          2.59288       -0.04125        0.83719
