45
isomer_2308.log	Energy: -113458.2322565
B         -2.64231       -1.54186       -0.56589
B         -2.62124       -3.24577        0.00970
B         -1.31908       -4.06247       -0.05486
B          0.19908       -3.32334       -0.78107
B         -1.22215       -0.75493       -0.92216
B          1.67658       -0.91807       -0.96913
B          1.46958       -4.09751        0.23294
B         -3.98146       -0.78179       -0.27369
B          1.34528       -2.34925        0.15285
B         -3.90104       -2.35656        0.19026
B          0.08010       -4.64523        0.17964
B          2.80401       -3.27222        0.45419
B          2.97322       -1.80011       -0.18529
B          4.32539       -0.87167        0.35793
B          0.32508        1.78659       -0.97611
B          1.80028        2.54617       -0.59870
B          3.15065        1.67742       -0.28543
B          4.54930        0.73909       -0.00267
B          4.44947        2.41909        0.53982
B          3.11592        3.28259        0.16581
B          1.76210        4.13344        0.21794
B          0.33066        3.37012       -0.40084
B          0.35046        4.71822        0.42567
B         -2.47173        3.41389        0.08912
B         -1.09320        4.15702        0.19901
B         -2.55607        1.72844       -0.65984
B         -3.74257        2.56326        0.26898
B         -3.93552        0.98729       -0.21540
B         -1.14999        2.51602       -0.44100
B         -1.19022       -2.38597       -0.38187
B          3.18256       -0.07922       -0.59056
B         -1.22451        0.93793       -1.04599
B          4.16786       -2.51230        0.85459
B         -5.22588       -1.53479        0.70074
B         -5.21794        0.12812        0.33028
B         -5.06208        1.73976        0.78579
B         -6.12119        0.83814        1.49467
B         -6.22271       -0.64617        1.41170
B          1.74030        0.85631       -0.86083
B          0.11046       -1.26046        0.17919
B          0.29209       -1.81269       -1.48137
B          5.36245       -1.63808        1.27207
B          5.61186       -0.10689        1.18188
B          5.47626        1.45317        1.08250
B          0.24986        0.00526       -1.08454
