45
isomer_2309.log	Energy: -113439.1778160
B         -2.49353        1.74356        0.52164
B         -2.43548        3.39271       -0.08829
B         -1.06362        4.15797       -0.30833
B          0.38677        3.39924        0.27731
B         -1.14259        0.94624        1.05768
B          1.78298        0.87774        0.75062
B          1.76512        4.13304       -0.46418
B         -3.82929        0.97587        0.20865
B          1.80627        2.54584        0.40098
B         -3.85192        2.63388       -0.03289
B          0.37049        4.72360       -0.61038
B          3.14725        3.27753       -0.37279
B          3.21269        1.72218        0.19755
B          4.63886        0.77851        0.02877
B          0.30477       -1.66533        1.30875
B          1.59866       -2.47947        0.57836
B          3.06555       -1.71121        0.36293
B          4.42721       -0.86048       -0.20244
B          4.30906       -2.51691       -0.58283
B          2.88238       -3.23797       -0.15464
B          1.44493       -3.95470       -0.25934
B         -0.04073       -3.24119        0.37441
B          0.12927       -4.46488       -0.71946
B         -2.60357       -3.17681       -0.82118
B         -1.29725       -4.03810       -0.86010
B         -2.45457       -1.72295        0.42329
B         -3.69547       -2.13328       -0.65488
B         -3.75935       -0.71161        0.11412
B         -1.79200       -3.40099        0.56477
B         -1.13154        2.65140        0.57732
B          3.27994        0.00409        0.68654
B         -1.25025       -0.65055        1.01999
B          4.46051        2.40738       -0.70932
B         -5.17522        1.88119       -0.44834
B         -5.21975        0.17674       -0.11717
B         -5.13624       -1.35247       -0.76388
B         -6.30936       -0.50747       -1.18319
B         -6.22163        0.98071       -1.14398
B          1.71339       -0.77239        1.03147
B         -1.12922       -2.31236        1.43978
B          0.37846        1.87168        0.95168
B          5.49446        1.38806       -1.17683
B          5.69417       -0.14593       -1.11731
B          5.46994       -1.69685       -1.08107
B          0.26943        0.08473        0.99621
