45
isomer_0231.log	Energy: -113111.0046289
B         -2.38923        1.77852        0.59340
B         -2.31254        3.45635        0.25895
B         -0.93752        4.19988        0.13951
B          0.46510        3.38873        0.65009
B         -1.04114        0.88035        1.18161
B          1.87123        0.87762        1.08222
B          1.81096        4.12424       -0.13161
B         -3.82054        1.12261        0.09581
B          1.90601        2.54188        0.70285
B         -3.61293        2.72837       -0.07100
B          0.43981        4.77966       -0.15871
B          3.13146        3.21974       -0.28618
B          3.23044        1.68314        0.22061
B          4.46903        0.69621       -0.49720
B          0.38903       -1.37121        1.27060
B          1.62742       -2.36600        0.55499
B          3.06499       -1.68142        0.19298
B          4.55920       -0.96318       -0.17283
B          4.02337       -2.51236       -0.91920
B          2.68135       -3.21439       -0.34296
B          1.14021       -3.90504       -0.11737
B          0.08096       -3.11544        0.92192
B         -0.17225       -4.68551        0.10880
B         -2.39862       -2.88987       -0.50310
B         -1.64184       -4.20766        0.19812
B         -2.57624       -1.32128        0.33948
B         -3.71172       -2.02171       -0.71815
B         -3.90821       -0.59037       -0.00866
B         -1.47634       -2.47218        0.87644
B         -0.96762        2.53006        0.90823
B          3.31935       -0.00917        0.54204
B         -1.28335       -0.67501        1.24086
B          4.37720        2.37432       -0.89956
B         -4.90317        1.99979       -0.82931
B         -5.14013        0.36538       -0.54757
B         -5.06615       -1.24270       -1.14645
B         -6.03790       -0.27665       -1.79403
B         -5.93074        1.21431       -1.69671
B          1.75644       -0.64959        0.83398
B         -0.67470       -3.25127       -0.67373
B          0.46376        1.77099        1.25213
B          5.41964        1.45641       -1.54643
B          5.46473       -0.08822       -1.63554
B          4.98552       -1.55501       -1.62222
B         -0.67435       -2.12332        2.15290
