45
isomer_2310.log	Energy: -113640.1414547
B          2.90159        1.37188       -0.45073
B          2.97320        3.21515        0.02431
B          1.52258        3.92905        0.09043
B          0.12103        3.08517       -0.35803
B          1.45638        0.49959       -0.99174
B         -1.38859        0.67647       -1.00543
B         -1.30576        4.01948       -0.00718
B          4.40271        0.98443        0.25180
B         -1.34987        2.32587       -0.65792
B          4.26176        2.51074        0.11232
B          0.10116        4.57904        0.19702
B         -2.71519        3.24191       -0.13129
B         -2.86238        1.67380       -0.60667
B         -4.32056        0.81723       -0.39132
B          0.00263       -1.63907       -1.54579
B         -1.25757       -2.42353       -0.51283
B         -2.65803       -1.61487       -0.29096
B         -4.05338       -0.76905        0.17407
B         -3.82818       -2.32356        0.83867
B         -2.38080       -3.05842        0.54393
B         -0.93586       -3.61637        0.66349
B          0.34947       -2.93136       -0.43933
B          0.58740       -4.05470        0.81631
B          2.98033       -3.03017       -0.40160
B          1.82572       -4.01926       -0.18497
B          2.86692       -1.39447       -1.30982
B          3.10465       -1.65588        0.45128
B          3.63825       -0.19970       -0.52551
B          1.64697       -2.47897       -1.45821
B          1.58487        2.19448       -0.40666
B         -2.95658       -0.04140       -0.95434
B          1.39792       -0.80917       -1.91796
B         -4.05427        2.49424        0.23579
B          3.06342        1.94413        1.16707
B          3.08927       -0.00725        1.17741
B          1.76347       -1.26861        1.50027
B          1.90975       -0.12059        2.47778
B          2.58821        1.12474        2.38163
B         -1.49827       -0.90576       -1.34225
B          1.61233       -2.66462        0.87136
B          0.03695        1.42269       -0.84270
B         -5.08530        1.53607        0.84567
B         -5.34456        0.03163        0.94295
B         -5.04893       -1.50712        1.16765
B          1.25515       -1.14391       -0.19799
