45
isomer_2311.log	Energy: -113532.9838125
B          2.23262        1.88497       -0.16043
B          2.03802        3.43962        0.42139
B          0.53617        4.11497        0.47591
B         -0.75692        3.26056       -0.26398
B          0.90415        0.85515       -0.64461
B         -1.87612        0.63563       -0.87284
B         -2.27107        3.94273        0.16549
B          3.79107        1.27293       -0.19977
B         -2.09228        2.29879       -0.58264
B          3.51787        2.80634        0.51771
B         -0.93871        4.61077        0.54036
B         -3.56490        3.02658       -0.10754
B         -3.49012        1.42851       -0.57496
B         -4.83926        0.40652       -0.41488
B         -0.20158       -1.75435       -1.17724
B         -1.45710       -2.48008       -0.19510
B         -2.90997       -1.80907       -0.10424
B         -4.42504       -1.11049        0.20088
B         -4.05977       -2.56695        1.00778
B         -2.54877       -3.20813        0.80052
B         -1.05962       -3.71133        0.91294
B          0.05615       -3.24817       -0.39516
B          0.50116       -3.94129        1.02493
B          2.85132       -3.09201       -0.57028
B          1.69414       -3.92553        0.06568
B          2.60190       -1.46636       -0.44841
B          4.17813       -2.10417       -0.27979
B          3.99136       -0.46028       -0.47462
B          1.34978       -2.50508       -1.30360
B          0.76460        2.55187       -0.21565
B         -3.33790       -0.28936       -0.83747
B          1.04119       -0.81331       -0.52520
B         -4.84627        2.12873        0.15718
B          4.94176        2.11937        0.77147
B          5.17299        0.48702        0.28113
B          5.38964       -1.22796        0.22608
B          6.44488       -0.22533        0.90591
B          6.24610        1.25649        1.14781
B         -1.69832       -0.96961       -1.02919
B          2.44755        0.29892       -0.70591
B         -0.58992        1.60777       -0.77566
B         -5.81697        1.07691        0.68367
B         -5.84703       -0.42402        0.87288
B         -5.38908       -1.89712        1.20177
B          1.32415       -2.28116        0.47767
