45
isomer_2312.log	Energy: -113414.5407890
B         -2.62590        1.61746        0.59340
B         -2.64701        3.23636       -0.00566
B         -1.30173        4.11313       -0.08630
B          0.14698        3.40855        0.57007
B         -1.19297        0.79472        0.92542
B          1.52843        0.81735        0.31415
B          1.49512        4.18350       -0.31355
B         -3.95128        0.75883        0.13869
B          1.58272        2.58017        0.27034
B         -3.92921        2.35181       -0.18809
B          0.04805        4.71585       -0.38371
B          2.88160        3.38608       -0.36385
B          3.00244        1.76342        0.12368
B          4.44676        0.96626       -0.13111
B          0.31173       -1.71263        0.91995
B          1.82532       -2.48728        0.57080
B          3.18701       -1.59609        0.48381
B          4.51767       -0.72795       -0.08384
B          4.49270       -2.40517       -0.49117
B          3.16529       -3.21748       -0.04924
B          1.82284       -4.09081       -0.15089
B          0.35987       -3.33207        0.36339
B          0.42754       -4.72612       -0.38871
B         -2.42911       -3.34763       -0.21938
B         -0.99446       -4.13801       -0.27380
B         -2.50913       -1.71639        0.27417
B         -3.82160       -2.55604       -0.34954
B         -3.88913       -0.94108       -0.02063
B         -1.14839       -2.57506        0.49530
B         -1.28585        2.53089        0.70371
B          3.19133        0.08405        0.63283
B         -1.17541       -0.80663        0.69005
B          4.21976        2.54126       -0.83531
B         -5.31727        1.51102       -0.56300
B         -5.30760       -0.14288       -0.14883
B         -5.21433       -1.76426       -0.72656
B         -6.33447       -0.86129       -1.23404
B         -6.41215        0.63231       -1.13337
B          1.70201       -0.75231        1.04523
B          0.25418        0.07713        1.65541
B          0.23500        1.77514        1.00902
B          5.29300        1.60311       -1.32638
B          5.60176        0.07364       -1.17496
B          5.52957       -1.47633       -1.07420
B          0.21829       -0.14856       -0.06327
