45
isomer_2313.log	Energy: -113442.7256950
B          2.39363        1.80502       -0.36713
B          2.27216        3.43775        0.22381
B          0.85362        4.16759        0.31677
B         -0.50458        3.36778       -0.37662
B          1.11912        0.93453       -0.92759
B         -1.81614        0.78633       -0.97417
B         -1.95186        4.08275        0.27698
B          3.81910        1.10379       -0.07179
B         -1.91148        2.47275       -0.55802
B          3.63982        2.66963        0.37581
B         -0.58583        4.71821        0.48807
B         -3.27156        3.16334        0.17969
B         -3.25384        1.57526       -0.33879
B         -4.62060        0.61551        0.01146
B         -0.13119       -1.77819       -1.05246
B         -1.53639       -2.49124       -0.27364
B         -3.02278       -1.79869       -0.24919
B         -4.48846       -1.05452       -0.00713
B         -4.19879       -2.58008        0.75479
B         -2.76761       -3.36158        0.42995
B         -1.36072       -3.98386        0.58265
B          0.01951       -3.26181       -0.34052
B          0.13718       -4.39525        0.78913
B          2.74708       -3.14716       -0.32270
B          1.50137       -3.96827        0.20180
B          2.56588       -1.43433       -0.37740
B          4.06610       -2.22060       -0.07190
B          3.97294       -0.61349       -0.21138
B          1.41643       -2.54492       -1.30401
B          1.00723        2.64407       -0.57229
B         -3.30063       -0.12370       -0.74658
B          1.23179       -0.72233       -0.85528
B         -4.57083        2.29078        0.55425
B          5.06815        1.90836        0.78752
B          5.19649        0.31089        0.31156
B          5.35987       -1.36936        0.44942
B          6.40007       -0.42749        1.12411
B          6.26266        1.05817        1.29212
B         -1.63618       -0.87956       -0.84084
B          1.24225       -2.21955        0.42341
B         -0.43117        1.84482       -1.06412
B         -5.63297        1.31098        1.04270
B         -5.69031       -0.22037        1.10357
B         -5.33075       -1.72201        1.21546
B         -0.27773        0.05007       -1.03149
