45
isomer_2314.log	Energy: -111612.9994180
B         -2.61222       -1.67959       -0.40005
B         -2.60282       -3.31633       -0.01459
B         -1.19550       -4.14545        0.22792
B          0.26000       -3.31483       -0.32816
B         -1.15356       -0.78854       -0.71191
B          1.72097       -0.81806       -0.80340
B          1.65185       -4.09790        0.36024
B         -4.07080       -0.80539       -0.32620
B          1.64314       -2.42054       -0.23733
B         -4.01004       -2.49585        0.13602
B          0.22738       -4.76118        0.50494
B          3.08370       -3.25072        0.36876
B          3.10879       -1.63116       -0.20309
B          4.56948       -0.81659        0.28777
B          0.28630        1.73780       -0.87519
B          1.67014        2.43509       -0.25428
B          3.12691        1.62972       -0.21447
B          4.57848        0.80241        0.28212
B          4.42008        2.36181        0.52225
B          3.11986        3.25342        0.34606
B          1.69752        4.11639        0.33157
B          0.29702        3.34405       -0.35140
B          0.28052        4.79646        0.47158
B         -2.56559        3.37957       -0.03797
B         -1.14913        4.19466        0.19881
B         -2.59320        1.74038       -0.41199
B         -3.98184        2.57586        0.11831
B         -4.06142        0.88299       -0.33210
B         -1.15886        2.55612       -0.58051
B         -1.18704       -2.51238       -0.56282
B          3.19978       -0.10256       -0.60524
B         -1.14456        0.83102       -0.71757
B          4.39376       -2.37242        0.53878
B         -5.32874       -1.68200        0.64002
B         -5.31729       -0.05170        0.40040
B         -5.30949        1.78026        0.62794
B         -6.47882        0.83406        1.23592
B         -6.48746       -0.71863        1.24134
B          1.73012        0.82793       -0.80915
B         -1.83104       -0.28860       -0.90723
B          0.26712       -1.71225       -0.86315
B          5.90674       -1.66905        0.74732
B          6.11146        0.04330        0.80593
B          5.92331        1.77436        0.80590
B          0.96493       -0.44597       -0.65206
