45
isomer_2315.log	Energy: -112600.8998849
B          2.61401       -1.63751        0.39031
B          2.61400       -3.27126       -0.00776
B          1.21138       -4.10707       -0.25454
B         -0.24829       -3.28968        0.31013
B          1.15044       -0.75783        0.71125
B         -1.72372       -0.80562        0.80685
B         -1.63641       -4.07590       -0.38219
B          4.06712       -0.75387        0.32101
B         -1.63700       -2.40318        0.22831
B          4.01595       -2.44106       -0.15415
B         -0.20815       -4.72933       -0.53415
B         -3.07340       -3.23745       -0.38200
B         -3.10748       -1.62253        0.20237
B         -4.57388       -0.81315       -0.27997
B         -0.30456        1.75833        0.89621
B         -1.69358        2.45192        0.28279
B         -3.14548        1.63799        0.23896
B         -4.59274        0.80568       -0.26181
B         -4.44423        2.36783       -0.49013
B         -3.14920        3.26598       -0.30902
B         -1.73214        4.13748       -0.29002
B         -0.32589        3.36848        0.38485
B         -0.31953        4.82726       -0.42691
B          2.53596        3.42391        0.06737
B          1.11419        4.23213       -0.16096
B          2.57416        1.78208        0.42869
B          3.95684        2.63010       -0.09725
B          4.04744        0.93432        0.33996
B          1.13513        2.58772        0.60567
B          1.19419       -2.48023        0.54880
B         -3.20717       -0.09766        0.61645
B          1.13156        0.86155        0.72942
B         -4.38906       -2.36589       -0.54325
B          5.32887       -1.61530       -0.65385
B          5.30785        0.01300       -0.40163
B          5.28852        1.84658       -0.61500
B          6.46266        0.91226       -1.23204
B          6.48076       -0.64026       -1.24946
B         -1.74290        0.84019        0.82532
B          1.03949       -1.47727        1.87797
B         -0.26435       -1.69134        0.85750
B         -5.90663       -1.67019       -0.74407
B         -6.12188        0.04127       -0.78916
B         -5.94429        1.77340       -0.77604
B          0.22141       -0.51593       -0.63478
