45
isomer_2316.log	Energy: -113157.7843090
B          2.55386       -1.63677        0.43893
B          2.49884       -3.33825       -0.00935
B          1.10704       -4.11893       -0.19212
B         -0.31695       -3.30979        0.29031
B          1.19036       -0.70023        0.77267
B         -1.62450       -0.69995        0.73581
B         -1.74655       -4.09300       -0.30549
B          3.95079       -0.86176        0.33264
B         -1.77863       -2.41932        0.15773
B          3.84288       -2.52304       -0.10320
B         -0.31650       -4.71659       -0.41893
B         -3.11673       -3.23101       -0.30260
B         -3.10955       -1.59180        0.18241
B         -4.47209       -0.72188       -0.21674
B         -0.17122        1.74859        0.84586
B         -1.57565        2.53474        0.20705
B         -3.00654        1.74616        0.17931
B         -4.40238        0.91465       -0.23916
B         -4.34682        2.55580       -0.58279
B         -2.93145        3.34940       -0.36169
B         -1.54431        4.18246       -0.38594
B         -0.14674        3.40109        0.31689
B         -0.08526        4.73713       -0.51721
B          2.70207        3.35551       -0.01090
B          1.34459        4.16010       -0.21292
B          2.64183        1.66211        0.43962
B          4.01214        2.44678       -0.12333
B          4.01540        0.84073        0.32606
B          1.30769        2.57216        0.55663
B          1.16976       -2.46071        0.51700
B         -3.13343        0.05069        0.55881
B          1.22875        0.88020        0.73217
B         -4.50668       -2.40970       -0.52243
B          5.18757       -1.73767       -0.58760
B          5.20890       -0.09985       -0.34268
B          5.30768        1.56691       -0.59872
B          6.36100        0.63456       -1.23403
B          6.30593       -0.88226       -1.23161
B         -1.58340        0.94432        0.75773
B         -0.20083        0.10864        1.75256
B         -0.19945       -1.46911        1.09820
B         -5.73849       -1.49449       -0.73280
B         -5.86821        0.11590       -0.77931
B         -5.63992        1.69788       -0.81355
B         -0.37483       -1.69038       -0.37331
