45
isomer_2319.log	Energy: -113458.7478798
B         -2.54881        1.66199        0.63434
B         -2.53752        3.38249        0.05407
B         -1.18896        4.14680       -0.02060
B          0.27452        3.43692        0.65451
B         -1.20207        0.93731        1.06855
B          1.74958        0.92422        0.98519
B          1.64795        4.15874       -0.19949
B         -3.90558        0.91267        0.15327
B          1.70981        2.56989        0.47552
B         -3.79820        2.51402       -0.20196
B          0.22411        4.70697       -0.31608
B          3.01596        3.32247       -0.26894
B          3.08776        1.74654        0.22299
B          4.36025        0.78775       -0.39836
B          0.28785       -1.73396        1.45911
B          1.40933       -2.41354        0.04962
B          3.00046       -1.71883        0.10943
B          4.46210       -0.86790       -0.10855
B          4.20831       -2.50307       -0.76295
B          2.87336       -3.28693       -0.30109
B          1.55548       -4.14124       -0.00611
B          0.23128       -3.33014        0.94050
B          0.18075       -4.71728        0.07870
B         -2.52431       -3.31401       -0.04928
B         -1.22625       -4.12571        0.18787
B         -2.56833       -1.60813        0.43706
B         -3.80538       -2.45339       -0.31173
B         -3.89438       -0.85376        0.10346
B         -1.08710       -2.40782        0.25682
B         -1.20078        2.57745        0.74508
B          3.14996       -0.00036        0.49982
B         -1.21692       -0.73976        0.83105
B          4.33496        2.46478       -0.76511
B         -5.09282        1.69040       -0.77147
B         -5.15320        0.03634       -0.44809
B         -5.11961       -1.60900       -0.86831
B         -6.13330       -0.69903       -1.55437
B         -6.12725        0.79766       -1.51996
B          1.57874       -0.75257        0.51544
B          0.24710        0.00391        1.24659
B          0.32643        1.81891        1.21097
B          5.42879        1.53621       -1.27864
B          5.57356       -0.04086       -1.27140
B          5.31278       -1.56329       -1.26407
B          0.09958       -1.25384       -0.23342
