45
isomer_0232.log	Energy: -112678.5818643
B         -2.59072        1.71994        0.43082
B         -2.57586        3.35560        0.04094
B         -1.16598        4.17807       -0.20922
B          0.28812        3.34275        0.34347
B         -1.13467        0.82353        0.73945
B          1.74029        0.84105        0.81979
B          1.68061        4.11804       -0.35238
B         -4.05328        0.85177        0.36494
B          1.66709        2.44233        0.24972
B         -3.98712        2.54072       -0.10205
B          0.25842        4.78700       -0.49337
B          3.10880        3.26476       -0.36414
B          3.12922        1.64663        0.21195
B          4.58453        0.82454       -0.28234
B          0.29507       -1.70847        0.90397
B          1.67352       -2.41330        0.27960
B          3.13354       -1.61426        0.23202
B          4.58668       -0.79446       -0.27238
B          4.42073       -2.35381       -0.50772
B          3.11742       -3.23940       -0.32412
B          1.69150       -4.09626       -0.30183
B          0.29694       -3.31615        0.38445
B          0.27109       -4.77066       -0.43455
B         -2.56699       -3.34031        0.08214
B         -1.15493       -4.16206       -0.15790
B         -2.58619       -1.70003        0.45187
B         -3.98040       -2.53100       -0.07083
B         -4.05105       -0.83661        0.37533
B         -1.15469       -2.52142        0.61705
B         -1.16140        2.54709        0.58586
B          3.21528        0.11873        0.61785
B         -1.13252       -0.79603        0.74942
B          4.41445        2.38043       -0.53685
B         -5.31121        1.73115       -0.59878
B         -5.30576        0.10146       -0.35483
B         -5.30662       -1.73112       -0.57747
B         -6.47427       -0.78157       -1.18348
B         -6.47632        0.77112       -1.19304
B          1.74247       -0.80494        0.82992
B         -1.24851       -0.82770       -0.91421
B          0.29050        1.74158        0.88274
B          5.92361        1.67007       -0.74933
B          6.12083       -0.04328       -0.80414
B          5.92533       -1.77352       -0.79873
B         -0.15755        0.35801        1.39037
