45
isomer_2320.log	Energy: -112464.3596766
B         -2.65539        1.72375        0.39388
B         -2.65266        3.37078        0.05492
B         -1.24906        4.21033       -0.17280
B          0.21208        3.36831        0.35038
B         -1.19249        0.82826        0.67121
B          1.68248        0.86312        0.74550
B          1.59751        4.17442       -0.32424
B         -4.11215        0.84797        0.30441
B          1.59692        2.48078        0.22558
B         -4.05868        2.55102       -0.11007
B          0.17044        4.83759       -0.44115
B          3.03145        3.33178       -0.36573
B          3.06435        1.69674        0.15980
B          4.52401        0.90045       -0.36309
B          0.25491       -1.69770        0.75378
B          1.63658       -2.37329        0.10470
B          3.09099       -1.56309        0.07861
B          4.53723       -0.71803       -0.40340
B          4.38135       -2.27044       -0.68665
B          3.08458       -3.17027       -0.52766
B          1.66460       -4.03723       -0.52874
B          0.26646       -3.28843        0.18460
B          0.24850       -4.71697       -0.67910
B         -2.59798       -3.32297       -0.11178
B         -1.18094       -4.12711       -0.38043
B         -2.62746       -1.69511        0.30873
B         -4.01726       -2.51907       -0.23634
B         -4.09836       -0.83987        0.26237
B         -1.18997       -2.51133        0.44508
B         -1.23137        2.55554        0.57126
B          3.16185        0.15762        0.51787
B         -1.17926       -0.79077        0.63089
B          4.34268        2.46227       -0.56878
B         -5.37845        1.74813       -0.62868
B         -5.36126        0.11173       -0.43545
B         -5.35017       -1.71302       -0.71488
B         -6.52578       -0.75321       -1.28846
B         -6.53846        0.79898       -1.24980
B          1.69592       -0.78234        0.70452
B          0.40347       -2.26374        2.94892
B          0.22673        1.75124        0.83968
B          5.85612        1.76928       -0.80665
B          6.06489        0.05985       -0.91507
B          5.88123       -1.67103       -0.96294
B          0.51978        0.22507        1.64520
