45
isomer_2323.log	Energy: -111249.4941521
B          2.59976        1.72333       -0.48640
B          2.58961        3.36166       -0.10776
B          1.18218        4.18940        0.13879
B         -0.27483        3.35400       -0.40603
B          1.14100        0.82851       -0.78675
B         -1.73402        0.85278       -0.86302
B         -1.66434        4.13759        0.28650
B          4.06022        0.85192       -0.41668
B         -1.65593        2.45775       -0.30409
B          3.99902        2.54421        0.03878
B         -0.24026        4.80388        0.42081
B         -3.09466        3.28803        0.30620
B         -3.12002        1.66603       -0.25872
B         -4.57667        0.85106        0.24333
B         -0.29538       -1.70092       -0.93177
B         -1.67469       -2.39795       -0.30057
B         -3.13261       -1.59489       -0.25636
B         -4.58293       -0.76796        0.24450
B         -4.42057       -2.32607        0.49031
B         -3.11978       -3.21621        0.31092
B         -1.69606       -4.07681        0.29245
B         -0.30055       -3.30498       -0.40120
B         -0.27717       -4.75389        0.42774
B          2.56375       -3.33434       -0.10290
B          1.14997       -4.15083        0.14484
B          2.58656       -1.69669       -0.48392
B          3.97943       -2.52758        0.04246
B          4.05370       -0.83648       -0.41546
B          1.15274       -2.51555       -0.64138
B          1.17231        2.55302       -0.64505
B         -3.21053        0.13561       -0.65398
B          1.13474       -0.79107       -0.78557
B         -4.40229        2.40823        0.48688
B          5.32178        1.73471        0.53914
B          5.31185        0.10340        0.30641
B          5.30841       -1.72760        0.54165
B          6.47934       -0.77687        1.13942
B          6.48534        0.77584        1.13830
B         -1.74038       -0.79324       -0.86183
B          0.93289       -0.07203        1.91064
B         -0.28205        1.74917       -0.93427
B         -5.91293        1.70317        0.70643
B         -6.11439       -0.00926        0.77331
B         -5.92328       -1.73998        0.77952
B          0.24168       -0.96211       -0.66564
