45
isomer_2325.log	Energy: -113507.0466806
B         -2.86017       -0.97812       -1.39872
B         -3.10481       -2.72943       -1.35411
B         -2.44587       -3.45473       -0.13753
B         -0.68362       -2.80686       -0.45314
B         -1.14271       -0.58330       -1.14777
B          1.50436       -1.10068       -1.20194
B          0.26166       -3.47496        0.91252
B         -3.98543       -0.06962       -0.58580
B          0.97219       -2.47562       -0.30539
B         -3.86888       -1.88513       -0.21617
B         -1.30670       -3.49227        0.88415
B          1.83096       -3.29415        0.85293
B          2.50498       -2.04642       -0.07862
B          4.04578       -1.53051        0.37067
B          0.60309        1.46167       -0.76111
B          2.18371        2.06186       -0.60278
B          3.49728        1.08187       -0.56969
B          4.68797       -0.07313       -0.18480
B          4.84090        1.64107        0.31314
B          3.70082        2.68192       -0.13067
B          2.53583        3.75558       -0.04454
B          0.95043        3.17034       -0.40345
B          1.28697        4.62119        0.17185
B         -1.76644        3.75381        0.12888
B         -0.23830        4.28224        0.11185
B         -2.14268        2.38237       -0.75835
B         -3.09813        3.00252        0.45097
B         -3.27784        1.36751       -0.20594
B         -0.60033        2.60083       -0.40690
B         -1.62154       -2.14396       -1.80817
B          3.18952       -0.64174       -0.80821
B         -1.16465        0.98906       -0.77076
B          3.39423       -2.87722        1.19873
B         -4.78181       -0.91824        0.65303
B         -3.55180        0.32870        1.20269
B         -3.98663        2.03773        1.36132
B         -4.58565        1.24991        2.39908
B         -5.14248        0.08592        1.73934
B          1.84748        0.46014       -0.93456
B         -2.24010       -0.09932        0.21718
B          0.02477       -1.74535       -1.57663
B          4.74448       -2.34326        1.55037
B          5.42047       -0.96144        1.23847
B          5.61575        0.52505        1.00047
B         -2.04704       -1.81584        0.08811
