45
isomer_2328.log	Energy: -113496.7354456
B          2.65536        1.81476       -0.39668
B          2.55048        3.33460        0.30938
B          1.12231        4.08407        0.43803
B         -0.26938        3.36075       -0.27954
B          1.20171        0.94497       -1.04093
B         -1.62463        0.78728       -0.85595
B         -1.71295        4.08484        0.39213
B          4.07340        0.89535       -0.25526
B         -1.68843        2.45975       -0.46145
B          3.94459        2.51172        0.44256
B         -0.30557        4.60960        0.66622
B         -3.04973        3.29561        0.19399
B         -3.11854        1.70062       -0.31757
B         -4.59119        0.85641       -0.11376
B         -0.34329        0.02613       -1.43009
B         -1.76753       -2.54897        0.22187
B         -3.18784       -1.79529       -0.34365
B         -4.51891       -0.77721        0.07820
B         -4.48090       -2.44804        0.65670
B         -3.15682       -3.31610        0.44855
B         -1.80306       -4.21237        0.43711
B         -0.40423       -3.29190       -0.02607
B         -0.33712       -4.82553        0.44595
B          2.40815       -3.31659       -0.14379
B          0.95397       -4.10891        0.08934
B          2.56205       -1.71575       -0.79458
B          3.87687       -2.56973       -0.05680
B          4.01971       -0.87516       -0.45345
B          1.07315       -2.31975       -0.51525
B          1.19112        2.54274       -0.45874
B         -3.21111        0.02754       -0.61638
B          1.09736       -0.59584       -1.09536
B         -4.46713        2.52163        0.49962
B          5.23038        1.58036        0.84931
B          5.26314       -0.09600        0.38593
B          5.18783       -1.82302        0.50522
B          6.20159       -0.96676        1.35086
B          6.22079        0.55526        1.48439
B         -1.79036       -0.82204       -0.87161
B          2.68005        0.14708       -1.08381
B         -0.30836        1.74497       -0.94786
B         -5.57814        1.57835        0.93468
B         -5.81392        0.05014        0.94411
B         -5.60247       -1.49129        1.01247
B         -0.38239       -1.59830       -0.22799
