45
isomer_2330.log	Energy: -112347.1288596
B         -2.61541       -1.58589       -0.53805
B         -2.61954       -3.23160       -0.19278
B         -1.21934       -4.07666        0.03551
B          0.24462       -3.24332       -0.49364
B         -1.14898       -0.69814       -0.82157
B          1.72566       -0.74639       -0.90113
B          1.62765       -4.05314        0.18146
B         -4.06800       -0.70313       -0.44920
B          1.63373       -2.36163       -0.37485
B         -4.02150       -2.40481       -0.02829
B          0.19780       -4.70935        0.30360
B          3.06549       -3.21690        0.21703
B          3.10483       -1.58405       -0.31483
B          4.56909       -0.79243        0.20225
B          0.30974        1.82086       -0.91655
B          1.69570        2.49262       -0.27266
B          3.14645        1.67591       -0.24621
B          4.58975        0.82612        0.23632
B          4.44147        2.38029        0.51391
B          3.14851        3.28541        0.35391
B          1.73250        4.15883        0.35433
B          0.32961        3.41369       -0.35350
B          0.31979        4.84560        0.50474
B         -2.53407        3.46242       -0.05187
B         -1.11288        4.26111        0.21104
B         -2.57176        1.83312       -0.46607
B         -3.95676        2.66548        0.07845
B         -4.04645        0.98477       -0.41367
B         -1.13083        2.64225       -0.60825
B         -1.19553       -2.42482       -0.71492
B          3.20865       -0.04677       -0.67899
B         -1.12830        0.92096       -0.78748
B          4.38104       -2.35261        0.41427
B         -5.33660       -1.59393        0.48972
B         -5.31234        0.04162        0.29018
B         -5.29241        1.86736        0.56258
B         -6.47128        0.91511        1.14205
B         -6.49110       -0.63714        1.10937
B          1.74667        0.89914       -0.86649
B         -0.53979       -2.92076        1.78953
B          0.26571       -1.62822       -0.98916
B          5.89807       -1.66561        0.64663
B          6.11482        0.04324        0.74810
B          5.93913        1.77511        0.78967
B         -0.62361       -0.53371        0.30554
