45
isomer_2335.log	Energy: -113699.5666917
B          2.39412        1.98884       -0.65834
B          2.17349        3.51173        0.08710
B          0.76482        4.23146        0.15844
B         -0.59454        3.38415       -0.53324
B          1.08386        1.07759       -1.36681
B         -1.84608        0.73864       -1.08381
B         -2.01969        3.94077        0.30448
B          3.66867        1.06740        0.00852
B         -2.01641        2.42104       -0.54121
B          3.44629        2.70695        0.48358
B         -0.67177        4.65608        0.45293
B         -3.29653        2.94997        0.32942
B         -3.23075        1.35933       -0.28124
B         -4.41160        0.34732        0.39687
B         -0.25207       -1.65956       -1.67304
B         -1.26405       -2.56047       -0.62732
B         -2.77929       -2.02923       -0.25457
B         -4.16198       -1.33281        0.42942
B         -3.55558       -2.80853        1.07844
B         -2.18140       -3.42408        0.48083
B         -0.67146       -3.91242        0.22546
B          0.29355       -3.22376       -0.95455
B          0.89346       -3.90003        0.52643
B          3.20172       -2.30397        0.42978
B          2.33980       -3.50433        0.88539
B          2.60120       -1.47900       -1.17818
B          3.69847       -0.75139       -0.19109
B          2.46129        0.25586       -0.87757
B          1.30854       -2.21989       -1.87361
B          0.89981        2.69739       -0.80534
B         -3.19246       -0.33868       -0.59935
B          1.16966       -0.53520       -1.71765
B         -4.47042        1.98199        0.89013
B          4.50608        1.78058        1.27657
B          4.78433        0.12121        0.79862
B          4.43192       -1.52022        1.18046
B          5.23806       -0.72820        2.15948
B          5.18862        0.77394        2.23519
B         -1.69603       -1.02153       -1.23743
B          1.96694       -2.96057       -0.53165
B         -0.49500        1.83754       -1.17139
B         -5.34185        0.95159        1.55184
B         -5.22404       -0.61331        1.64493
B         -4.72883       -2.06609        1.73136
B         -0.41287        0.11188       -1.58826
