45
isomer_2336.log	Energy: -113441.9616193
B          2.47622       -1.74139        0.39383
B          2.66461       -3.19451       -0.79580
B          1.38741       -4.10544       -0.81043
B          0.07770       -3.24146        0.39155
B          1.28613       -0.63198        1.02251
B         -1.68343       -0.78902        1.00584
B         -1.37888       -3.97955       -0.24626
B          3.68401       -0.64391       -0.00894
B         -1.55119       -2.48797        0.56421
B          3.74199       -2.13668       -0.64964
B         -0.04815       -4.50033       -0.66295
B         -2.82786       -3.27243       -0.17220
B         -3.02374       -1.74413        0.31419
B         -4.41258       -0.90834       -0.21258
B         -0.40021        1.88207        0.97211
B         -1.84839        2.55040        0.45736
B         -3.21466        1.67772        0.16157
B         -4.64592        0.72651        0.04996
B         -4.50090        2.36111       -0.68905
B         -3.19484        3.24543       -0.35213
B         -1.83527        4.13123       -0.42239
B         -0.44230        3.42828        0.34037
B         -0.45668        4.75306       -0.56067
B          2.37237        3.45340       -0.11179
B          0.97766        4.21899       -0.27831
B          2.44972        1.82497        0.46445
B          3.79646        2.69291       -0.16201
B          3.72667        1.01939       -0.02107
B          1.08771        2.68770        0.57281
B          1.82181       -3.42111        0.59191
B         -3.25526       -0.02841        0.65389
B          1.14745        0.95958        1.03290
B         -4.26499       -2.56432       -0.59795
B          5.16700       -1.31524       -0.67765
B          5.17495        0.24056       -0.07949
B          5.12677        1.93740       -0.51200
B          6.24683        1.01116       -1.05932
B          6.37270       -0.47046       -0.99274
B         -1.77632        0.86156        0.72650
B          1.17110       -2.28371        1.41886
B         -0.27664       -1.65369        1.30214
B         -5.44784       -1.75673       -1.08227
B         -5.69859       -0.21425       -1.10202
B         -5.52340        1.32646       -1.14219
B         -0.24925        0.09515        0.96486
