45
isomer_2337.log	Energy: -113244.2878039
B          2.80495       -1.34897        0.92817
B          2.70491       -3.19256        0.25069
B          1.33242       -3.93144       -0.26360
B         -0.21070       -3.17043       -0.07628
B          1.28378       -0.70627        1.15373
B         -1.78244       -0.80357        0.85902
B         -1.51077       -4.06346       -0.67336
B          4.09241       -0.64980        0.29083
B         -1.59596       -2.32235       -0.00881
B          3.94654       -2.27907       -0.00198
B         -0.03646       -4.57422       -0.72194
B         -2.91498       -3.24263       -0.56621
B         -3.11641       -1.79052        0.18757
B         -4.55844       -0.94027       -0.04192
B         -0.35600        1.75137        0.89984
B         -1.82327        2.48763        0.52779
B         -3.25869        1.68538        0.37352
B         -4.70085        0.72253        0.09582
B         -4.51232        2.33895       -0.56931
B         -3.17047        3.20879       -0.23155
B         -1.81856        4.07405       -0.32213
B         -0.39222        3.36003        0.34793
B         -0.41775        4.67279       -0.54640
B          2.39437        3.36380       -0.24938
B          1.02508        4.10190       -0.33149
B          2.55529        1.72876        0.62403
B          3.71930        2.55643       -0.35387
B          4.02855        1.09328        0.29977
B          1.11117        2.49017        0.40804
B          1.07420       -2.33484        0.54923
B         -3.31167       -0.02343        0.66694
B          1.18663        0.93514        1.09949
B         -4.37874       -2.54326       -0.70313
B          5.19512       -1.47574       -0.68031
B          5.22739        0.20036       -0.45733
B          5.10891        1.80895       -0.86163
B          6.11224        0.92184       -1.63103
B          6.12333       -0.57567       -1.57471
B         -1.75723        0.84131        0.90857
B          2.11796       -2.44893        1.68757
B         -0.27209       -0.04891        1.38443
B         -5.59565       -1.67467       -1.00971
B         -5.79165       -0.15832       -0.99722
B         -5.59015        1.37430       -1.04142
B         -0.27109       -1.41842        0.37175
