45
isomer_2338.log	Energy: -112123.4722534
B          2.60186       -1.59530        0.35320
B          2.61497       -3.22522       -0.06007
B          1.21904       -4.07054       -0.31233
B         -0.24651       -3.27082        0.26232
B          1.13146       -0.73106        0.68471
B         -1.74202       -0.80407        0.78456
B         -1.62912       -4.06230       -0.43502
B          4.04733       -0.69879        0.28976
B         -1.64280       -2.39538        0.19102
B          4.00960       -2.38186       -0.20101
B         -0.19565       -4.70217       -0.59540
B         -3.07315       -3.23608       -0.42468
B         -3.11987       -1.62700        0.17476
B         -4.59387       -0.82561       -0.29762
B         -0.34442        1.77086        0.89547
B         -1.74031        2.45834        0.29081
B         -3.18535        1.63260        0.24178
B         -4.62639        0.79276       -0.26435
B         -4.49147        2.35816       -0.47836
B         -3.20376        3.26552       -0.29101
B         -1.79408        4.14877       -0.26621
B         -0.38023        3.38546        0.39917
B         -0.38759        4.85173       -0.39898
B          2.48050        3.46806        0.07754
B          1.05156        4.26631       -0.14093
B          2.53318        1.82333        0.42349
B          3.90775        2.68787       -0.09678
B          4.01342        0.98893        0.32446
B          1.08770        2.61507        0.61032
B          1.18949       -2.45145        0.50616
B         -3.23173       -0.10695        0.60319
B          1.09893        0.88786        0.71799
B         -4.39640       -2.37422       -0.57566
B          5.31464       -1.54041       -0.69514
B          5.28030        0.08525       -0.42774
B          5.24512        1.92050       -0.62399
B          6.42604        1.00193       -1.25162
B          6.45723       -0.55015       -1.28353
B         -1.77508        0.84128        0.81839
B          1.29299       -2.20247        2.20638
B         -0.27514       -1.67784        0.82457
B         -5.92013       -1.68955       -0.76750
B         -6.14991        0.02037       -0.79629
B         -5.98694        1.75374       -0.76734
B          1.12884       -0.80542       -0.22849
