45
isomer_0234.log	Energy: -113665.2423618
B          2.02832       -1.43167        0.55409
B          1.73422       -2.92708       -0.15253
B          0.28378       -3.42007       -0.43692
B         -1.07564       -2.92803        0.62061
B          0.57136       -0.41755        0.82546
B         -2.25838       -0.39365        1.61962
B         -2.58764       -3.49681       -0.45804
B          3.46796       -0.58887        0.52854
B         -2.13972       -1.85606       -0.55259
B          3.23857       -2.41223       -0.15320
B         -1.18284       -3.49935       -0.97715
B         -3.78210       -2.63606        0.02832
B         -3.58824       -1.09380        0.61095
B         -4.83128        0.05559        0.19024
B          0.62123        1.35321        0.86280
B         -0.76827        2.27272        0.35929
B         -2.26506        1.53937       -0.14881
B         -4.05447        1.59796       -0.13387
B         -3.28991        2.80557       -1.04210
B         -1.79483        3.14708       -0.59185
B         -0.46415        3.87920       -0.27789
B          0.80168        2.99233        0.51511
B          0.98832        4.43632       -0.17875
B          3.62204        2.79186        0.15088
B          2.29184        3.74502        0.07978
B          3.54896        1.18403        0.43715
B          4.92491        1.91822       -0.24610
B          4.91480        0.19351        0.10133
B          2.17617        2.05212        0.63510
B          0.44865       -2.05772        0.60533
B         -3.38634        0.58444        0.98810
B          2.05572        0.31090        0.70708
B         -4.99443       -1.56945       -0.34573
B          4.64679       -2.93450       -0.74653
B          4.67669       -1.42045       -0.27627
B          5.98810        0.94352       -0.80196
B          6.09741       -0.57946       -0.95065
B          5.84906       -2.15302       -1.10062
B         -0.98450        0.60943        0.91177
B         -2.44982       -2.23179        1.22731
B         -0.97971       -1.13599        0.77892
B         -5.81274       -0.45678       -0.95362
B         -5.44090        1.03247       -1.14065
B         -4.66238        2.34722       -1.40823
B         -2.18324       -0.15165       -0.26372
