45
isomer_2340.log	Energy: -113305.9226844
B         -2.32743        1.57104        0.46404
B         -2.32613        3.26852        0.05276
B         -1.01734        4.13722       -0.11708
B          0.43205        3.45925        0.59224
B         -0.87154        0.91558        0.99139
B          1.73802        0.81487        0.99587
B          1.76583        4.07314       -0.35164
B         -3.83299        0.90959        0.10835
B          1.86376        2.53163        0.48563
B         -3.62588        2.45723       -0.20776
B          0.37198        4.67530       -0.46236
B          3.13528        3.18684       -0.36066
B          3.17697        1.63899        0.20366
B          4.46177        0.65139       -0.33292
B          0.28788       -1.89091        1.39851
B          1.57854       -2.45244        0.52246
B          3.05194       -1.78909        0.29128
B          4.53073       -1.02316       -0.12600
B          4.17505       -2.57701       -0.76313
B          2.82010       -3.31867       -0.27474
B          1.43502       -4.08248       -0.37027
B          0.13326       -3.30520        0.49067
B          0.01422       -4.57064       -0.49505
B         -2.67428       -3.16280       -0.10078
B         -1.31635       -3.89376       -0.19129
B         -2.70018       -1.59021        0.32791
B         -4.05535       -2.41606       -0.25924
B         -4.03764       -0.79358        0.13703
B         -1.29007       -2.28202        0.78090
B         -0.99092        2.59188        0.80272
B          3.28503       -0.07269        0.58525
B         -1.79699       -0.35257        0.65561
B          4.45514        2.30996       -0.79752
B         -4.99274        1.79879       -0.84080
B         -5.10666        0.13768       -0.59171
B         -5.32190       -1.51845       -0.78730
B         -6.27380       -0.50721       -1.49262
B         -6.11799        1.00485       -1.52165
B          1.67723       -0.78933        0.84439
B         -0.79223       -0.80193        1.90333
B          0.47743        1.92258        1.25078
B          5.52527        1.36614       -1.30638
B          5.61057       -0.18978       -1.32333
B          5.27037       -1.71362       -1.36779
B          0.19498       -0.32887        0.55722
