45
isomer_2341.log	Energy: -113475.8122694
B         -2.50150        1.70347        0.54876
B         -2.45699        3.34198       -0.08300
B         -1.07189        4.12026       -0.27527
B          0.35245        3.38553        0.35803
B         -1.16769        0.90578        1.00705
B          1.78879        0.88728        0.94514
B          1.74440        4.13625       -0.39944
B         -3.91638        0.94813        0.27471
B          1.78610        2.54499        0.45303
B         -3.80330        2.51958       -0.15424
B          0.34799        4.70200       -0.56098
B          3.10221        3.26931       -0.34207
B          3.16369        1.72473        0.22605
B          4.51602        0.76160       -0.19476
B          0.17030       -1.60542        0.51254
B          1.62280       -2.48691        0.31034
B          3.09494       -1.72023        0.37194
B          4.57100       -0.88051        0.15653
B          4.36333       -2.48472       -0.47338
B          2.99835       -3.31738       -0.09464
B          1.61225       -4.13636       -0.15740
B          0.10792       -3.32635        0.57949
B          0.25482       -4.52873       -0.56880
B         -2.51559       -3.10551       -0.40313
B         -1.15745       -3.85317       -0.49469
B         -2.59536       -1.68919        0.64350
B         -3.87594       -2.29771       -0.35200
B         -3.96979       -0.81074        0.28486
B         -1.35528       -2.73641        1.07696
B         -1.13674        2.62165        0.63231
B          3.26175        0.03216        0.67990
B         -1.29535       -0.71596        0.71658
B          4.44916        2.42628       -0.70543
B         -5.18384        1.74868       -0.55023
B         -5.27418        0.11284       -0.11649
B         -5.25312       -1.50358       -0.61872
B         -6.34203       -0.57731       -1.19334
B         -6.30243        0.89731       -1.16082
B          1.65657       -0.76405        0.72207
B         -1.12864       -2.02499       -0.51179
B          0.35669        1.86305        1.04549
B          5.57018        1.48642       -1.13066
B          5.73039       -0.05836       -1.05493
B          5.43834       -1.57577       -1.01653
B          0.24304        0.06008        1.06747
