45
isomer_2342.log	Energy: -113473.5831600
B          2.63629       -1.41124        0.53817
B          2.82202       -3.09037        0.40569
B          1.65980       -3.94128       -0.16335
B          0.05945       -3.15289        0.34215
B          1.07154       -0.85577        0.29234
B         -1.75425       -0.93617        1.07824
B         -1.16758       -3.71818       -0.79700
B          4.02922       -0.51087        0.47784
B         -1.53346       -2.48241        0.32027
B          4.14550       -2.11788        0.16843
B          0.38194       -3.98137       -1.00542
B         -2.66167       -3.24450       -0.61215
B         -3.00383       -1.80159        0.20392
B         -4.40309       -0.99821       -0.24624
B         -0.44450        1.66134        0.77217
B         -1.96761        2.39999        0.55043
B         -3.39237        1.55893        0.50968
B         -4.77645        0.54848        0.31570
B         -4.68608        2.24907       -0.29904
B         -3.39982        3.13819       -0.04820
B         -2.03128        3.98279       -0.22517
B         -0.56044        3.30366        0.34634
B         -0.65234        4.57407       -0.58894
B          2.24386        3.39280       -0.31240
B          0.83643        4.09402       -0.43251
B          2.41928        1.74265        0.30715
B          3.67848        2.61150       -0.43849
B          3.90242        1.16144        0.35043
B          0.95990        2.49469        0.12095
B          1.38727       -2.43633        1.25321
B         -3.35073       -0.20254        0.82798
B          1.04149        0.81015        0.48294
B         -4.16183       -2.56086       -0.87930
B          5.36633       -1.30359       -0.34737
B          5.30509        0.39659       -0.14372
B          5.11422        2.01428       -0.66062
B          6.37576        1.16405       -1.07202
B          6.45857       -0.32091       -0.98846
B         -1.88737        0.76345        0.88495
B         -0.30785       -0.03849        0.94465
B         -0.18850       -1.74904        1.24288
B         -5.43129       -1.81423       -1.16559
B         -5.81106       -0.29332       -0.93731
B         -5.70259        1.20967       -0.81834
B          1.38116       -2.30975       -0.55487
