45
isomer_2344.log	Energy: -113453.4670136
B         -2.59957       -1.56221       -0.53262
B         -2.65484       -3.26828       -0.17911
B         -1.35066       -4.09417       -0.17291
B          0.18469       -3.30003       -0.67917
B         -1.25490       -0.71035       -0.96419
B          1.62736       -0.90322       -0.88659
B          1.37628       -4.09494        0.33407
B         -3.88300       -0.74192       -0.08100
B          1.28725       -2.30669        0.22020
B         -3.90945       -2.36674        0.14766
B          0.01108       -4.69698        0.15678
B          2.70585       -3.25814        0.55935
B          2.91415       -1.78332       -0.09176
B          4.38945       -0.96352        0.22574
B          0.36651        1.81841       -1.12728
B          1.79994        2.50630       -0.52078
B          3.16877        1.65022       -0.30894
B          4.49557        0.68384        0.13196
B          4.45707        2.35899        0.59624
B          3.13895        3.23832        0.18090
B          1.80106        4.11144        0.20630
B          0.37407        3.41146       -0.53255
B          0.39858        4.70821        0.38775
B         -2.41502        3.43306        0.10247
B         -1.03932        4.16568        0.15785
B         -2.48504        1.73763       -0.52213
B         -3.70798        2.61006        0.33720
B         -3.83285        1.00914       -0.02379
B         -1.13063        2.61232       -0.67507
B         -1.25571       -2.44719       -0.84919
B          3.18522       -0.10958       -0.61027
B         -1.19548        0.97777       -1.07276
B          4.08779       -2.52843        0.92255
B         -5.19310       -1.50680        0.74289
B         -5.14850        0.16240        0.42500
B         -5.03823        1.79334        0.86636
B         -6.13383        0.89503        1.50785
B         -6.21380       -0.59714        1.43162
B          1.76439        0.85359       -0.97256
B          0.01007       -1.28548        0.12796
B          0.27508       -1.80554       -1.51311
B          5.29212       -1.67297        1.32572
B          5.58508       -0.15945        1.21892
B          5.50266        1.40958        1.12655
B          0.24285        0.01630       -1.12410
