45
isomer_2347.log	Energy: -112807.3480774
B          2.68113       -1.68494        0.36002
B          2.64784       -3.32643       -0.07845
B          1.22660       -4.14898       -0.32278
B         -0.24303       -3.35668        0.26300
B          1.24087       -0.84972        0.71495
B         -1.78353       -0.81423        0.78196
B         -1.65566       -4.08371       -0.42015
B          4.09806       -0.78548        0.28107
B         -1.70733       -2.43697        0.19049
B          4.02461       -2.45369       -0.21456
B         -0.21459       -4.70189       -0.57800
B         -3.09716       -3.25017       -0.42146
B         -3.15667       -1.64315        0.16405
B         -4.61202       -0.80700       -0.31112
B         -0.37773        1.82777        0.89863
B         -1.74945        2.47169        0.25492
B         -3.18758        1.66033        0.20041
B         -4.61825        0.82505       -0.29980
B         -4.49143        2.40008       -0.56141
B         -3.14994        3.27315       -0.36117
B         -1.73404        4.12497       -0.34003
B         -0.32838        3.38563        0.36536
B         -0.31927        4.75821       -0.44969
B          2.57057        3.40438        0.06391
B          1.12263        4.20145       -0.17098
B          2.72084        1.76947        0.43044
B          4.02845        2.59221       -0.11453
B          4.10109        0.93705        0.31712
B          1.19631        2.60104        0.60479
B          1.27632       -2.56973        0.50416
B         -3.26298       -0.07794        0.58376
B          1.44728        0.88306        0.73149
B         -4.46526       -2.38403       -0.60622
B          5.30469       -1.62225       -0.72722
B          5.30360        0.02040       -0.45150
B          5.29638        1.80826       -0.64393
B          6.40421        0.87275       -1.28131
B          6.42907       -0.63050       -1.32609
B         -1.80040        0.86662        0.81214
B          0.39246        0.55373        0.81123
B         -0.29588       -1.75495        0.82400
B         -5.87864       -1.59152       -0.78583
B         -6.07117        0.04916       -0.82121
B         -5.89351        1.67815       -0.81576
B          0.58092       -1.99066        1.94532
