45
isomer_2349.log	Energy: -113466.6410384
B         -2.60213       -1.81417       -0.25684
B         -3.04848       -3.48870        0.18463
B         -1.87992       -4.48792        0.22388
B          0.01767       -3.07365       -0.66941
B         -2.09613        0.02810       -0.59963
B          1.64297       -0.79017       -0.92738
B          1.19628       -3.96382        0.25394
B         -3.73753       -0.65459       -0.04349
B          1.59894       -2.54453       -0.63590
B         -4.14602       -2.28948        0.24971
B         -0.35562       -4.34511        0.32911
B          2.70596       -3.43474        0.22736
B          2.92510       -1.78582       -0.18416
B          4.42606       -1.12196        0.16154
B          0.54536        1.81914       -1.06621
B          1.93068        2.45032       -0.39963
B          3.32775        1.54022       -0.23757
B          4.65171        0.55359        0.07710
B          4.55686        2.16074        0.75840
B          3.31702        3.10725        0.32370
B          2.03397        4.04696        0.35506
B          0.61145        3.49816       -0.47311
B          0.67826        4.74639        0.52335
B         -2.13386        3.49849        0.16139
B         -0.75576        4.26740        0.19385
B         -2.23690        1.89187       -0.50519
B         -3.45626        2.69368        0.35609
B         -3.49664        0.98991       -0.03456
B         -0.90243        2.79848       -0.80612
B         -1.07528       -1.46987       -0.63333
B          3.22100       -0.14522       -0.62341
B         -0.96958        1.20705       -1.33825
B          4.11286       -2.76826        0.67429
B         -5.25418       -1.30664        0.67890
B         -4.98612        0.37877        0.44673
B         -4.85561        2.04858        0.68267
B         -6.13162        1.28559        1.10843
B         -6.28080       -0.20989        1.19705
B          1.76668        0.81198       -0.79639
B         -1.45552       -2.94308        0.16090
B          0.41736       -1.68449       -1.50826
B          5.26970       -1.96373        1.20861
B          5.61526       -0.42674        1.21847
B          5.53805        1.10771        1.28732
B         -0.25059       -0.21780       -1.30364
