45
isomer_2350.log	Energy: -112789.3874543
B          2.48640        1.88191       -0.48505
B          2.43718        3.51607       -0.04494
B          1.02642        4.29714        0.21131
B         -0.39383        3.47071       -0.33146
B          1.07882        1.08001       -0.82207
B         -1.75484        0.91225       -0.86869
B         -1.77807        4.16982        0.38841
B          3.91315        1.03156       -0.42242
B         -1.74987        2.54090       -0.25629
B          3.80189        2.66734        0.06884
B         -0.37509        4.80575        0.51192
B         -3.15708        3.27283        0.38870
B         -3.16262        1.69092       -0.20666
B         -4.56285        0.78636        0.26042
B         -0.34508       -1.56518       -1.00386
B         -1.63389       -2.41924       -0.38700
B         -3.05986       -1.64606       -0.32381
B         -4.49400       -0.84113        0.19435
B         -4.36096       -2.45096        0.43911
B         -2.95306       -3.26561        0.19825
B         -1.55926       -4.08900        0.14988
B         -0.20942       -3.31239       -0.52282
B         -0.14375       -4.68964        0.25208
B          2.63562       -3.27567       -0.18664
B          1.27553       -4.14625       -0.00865
B          2.66340       -1.50943       -0.49015
B          3.99263       -2.33394       -0.01532
B          3.98375       -0.68019       -0.44915
B          1.23876       -2.53883       -0.73752
B          1.07753        2.71602       -0.60619
B         -3.20523        0.10417       -0.64935
B          1.12899       -0.33046       -0.85780
B         -4.52170        2.40299        0.59520
B          5.09208        1.90640        0.55728
B          5.15015        0.25149        0.28658
B          5.21091       -1.50147        0.48127
B          6.27924       -0.53090        1.08309
B          6.26663        0.95551        1.13300
B         -1.72148       -0.76636       -0.91975
B          1.10481       -2.85364        1.94851
B         -0.35777        1.88617       -0.91834
B         -5.80623        1.49190        0.75441
B         -5.91005       -0.09215        0.74201
B         -5.67090       -1.66750        0.69134
B          1.04301       -1.33225        0.17796
