45
isomer_2352.log	Energy: -113385.6839509
B          2.29960       -1.54372        0.48991
B          2.25331       -3.29342       -0.12495
B          0.95218       -4.11756       -0.18228
B         -0.51592       -3.53307        0.68819
B          0.93747       -1.01509        1.10500
B         -1.85539       -0.83959        0.96923
B         -1.84599       -4.11737       -0.39144
B          3.78441       -0.86725        0.21870
B         -1.89915       -2.59046        0.35547
B          3.55189       -2.42606       -0.25458
B         -0.45277       -4.66279       -0.47847
B         -3.15684       -3.17105       -0.53344
B         -3.12080       -1.60012        0.04412
B         -4.34488       -0.57937       -0.52366
B         -0.20887        2.00553        1.22462
B         -1.59625        2.63548        0.69575
B         -2.95895        1.85003        0.34585
B         -4.36767        1.03497       -0.12343
B         -4.18125        2.69828       -0.58872
B         -2.80664        3.42773       -0.15094
B         -1.41043        4.15000       -0.31770
B         -0.03202        3.34999        0.39291
B          0.01469        4.55981       -0.63349
B          2.70313        3.17865       -0.15260
B          1.38531        3.88954       -0.37601
B          2.81690        1.61933        0.34602
B          4.12435        2.40507       -0.28577
B          4.15481        0.84232        0.32913
B          1.32638        2.14485        0.52370
B          0.94620       -2.61895        0.61907
B         -3.10408        0.09213        0.42614
B          2.01683        0.33628        0.76652
B         -4.43246       -2.22825       -0.98014
B          4.89175       -1.78904       -0.84224
B          5.09885       -0.13806       -0.51688
B          5.37708        1.51907       -0.73626
B          6.28853        0.46717       -1.44127
B          6.04797       -1.01572       -1.50575
B         -1.50984        0.89089        1.15788
B         -0.64422       -0.41678        1.89898
B         -0.58089       -2.00148        1.28210
B         -5.49701       -1.24134       -1.38970
B         -5.58719        0.33347       -1.28642
B         -5.27150        1.84796       -1.17908
B          0.40936        0.52795        1.11592
