45
isomer_2353.log	Energy: -112340.6012946
B         -2.61690       -1.62002       -0.49207
B         -2.61510       -3.26246       -0.13152
B         -1.21178       -4.10079        0.10240
B          0.24861       -3.26765       -0.43682
B         -1.15382       -0.73018       -0.78617
B          1.72083       -0.76980       -0.86986
B          1.63533       -4.06664        0.24358
B         -4.07222       -0.74122       -0.40912
B          1.63501       -2.38037       -0.32845
B         -4.01950       -2.43874        0.02752
B          0.20783       -4.72634        0.37410
B          3.07048       -3.22543        0.26908
B          3.10365       -1.59747       -0.27801
B          4.56611       -0.79631        0.22936
B          0.29650        1.79257       -0.90690
B          1.68126        2.47480       -0.27150
B          3.13471        1.66310       -0.23976
B          4.58154        0.82255        0.24834
B          4.42861        2.37874        0.51170
B          3.13244        3.27812        0.34536
B          1.71358        4.14688        0.33992
B          0.31204        3.39062       -0.35872
B          0.29887        4.83041        0.48619
B         -2.55132        3.43283       -0.05298
B         -1.13234        4.23856        0.20021
B         -2.58432        1.79963       -0.45196
B         -3.97119        2.63251        0.08700
B         -4.05614        0.94700       -0.38932
B         -1.14627        2.61209       -0.60396
B         -1.19455       -2.45594       -0.66340
B          3.20187       -0.06332       -0.65661
B         -1.13839        0.88923       -0.76718
B          4.38351       -2.35505        0.45618
B         -5.33644       -1.62737        0.54006
B         -5.31784        0.00633        0.32528
B         -5.30346        1.83457        0.58066
B         -6.47830        0.88393        1.17084
B         -6.49309       -0.66862        1.15263
B          1.73651        0.87604       -0.85056
B         -0.42344       -2.35606        1.38131
B          0.26364       -1.65716       -0.94737
B          5.89864       -1.66099        0.67972
B          6.10996        0.04944        0.76495
B          5.92866        1.78104        0.79070
B         -0.47380       -0.19305       -0.41485
