45
isomer_2356.log	Energy: -113328.4175686
B          2.46070        1.69878       -0.55939
B          2.28162        3.43736       -0.18269
B          0.89687        4.15127       -0.23577
B         -0.52296        3.36149       -0.91977
B          1.13164        0.88071       -1.11373
B         -1.79137        0.74293       -0.87790
B         -1.92630        4.05681       -0.04955
B          3.90452        1.10506       -0.05285
B         -1.86786        2.42045       -0.54138
B          3.50724        2.65042        0.41623
B         -0.54427        4.66523        0.01801
B         -3.24747        3.15509        0.10774
B         -3.23082        1.55996       -0.25242
B         -4.39939        0.56594        0.48791
B         -0.28139       -1.73846       -1.19977
B         -1.48487       -2.61596       -0.32068
B         -2.91515       -1.86643        0.08859
B         -4.43917       -1.09057        0.31218
B         -4.02559       -2.65615        1.07435
B         -2.65298       -3.40624        0.59592
B         -1.18040       -4.10526        0.40911
B         -0.08271       -3.38699       -0.74786
B          0.32097       -4.42367        0.42289
B          2.78145       -2.88354       -0.58816
B          1.59394       -3.81689       -0.19514
B          3.26371       -1.22738       -1.07664
B          3.95221       -2.08547        0.25218
B          4.26363       -0.51337       -0.10367
B          1.27393       -2.50172       -1.26490
B          1.06281        2.58730       -0.86361
B         -3.20102       -0.19576       -0.41962
B          1.28357       -0.72899       -1.50157
B         -4.51256        2.26946        0.68970
B          4.38661        1.95337        1.48857
B          4.81648        0.35045        1.17783
B          4.80898       -1.36670        1.34562
B          5.34970       -0.40345        2.49567
B          5.15205        1.07278        2.56334
B         -1.62613       -0.91761       -0.62220
B          2.35428       -1.74605       -2.12375
B         -0.44730        1.70743       -1.26628
B         -5.52436        1.32217        1.30905
B         -5.53704       -0.25339        1.45949
B         -5.14660       -1.75792        1.57685
B         -0.25917       -0.02649       -1.21193
