45
isomer_2357.log	Energy: -111066.9881423
B         -2.60967       -1.63540       -0.41691
B         -2.61064       -3.26942       -0.01993
B         -1.20865       -4.10529        0.23014
B          0.25251       -3.28742       -0.32998
B         -1.14528       -0.75540       -0.73325
B          1.72912       -0.80293       -0.82099
B          1.63878       -4.07402        0.36562
B         -4.06303       -0.75190       -0.35101
B          1.64093       -2.40088       -0.24375
B         -4.01304       -2.43941        0.12317
B          0.21015       -4.72764        0.51323
B          3.07571       -3.23547        0.36994
B          3.11128       -1.62015       -0.21326
B          4.57629       -0.81099        0.27364
B          0.31003        1.76097       -0.91254
B          1.69733        2.45425       -0.29485
B          3.14915        1.64039       -0.24758
B          4.59510        0.80785        0.25660
B          4.44585        2.36983        0.48556
B          3.15125        3.26802        0.30150
B          1.73419        4.13943        0.27918
B          0.32985        3.37079       -0.40005
B          0.32116        4.82903        0.41266
B         -2.53287        3.42581       -0.09039
B         -1.11178        4.23398        0.14238
B         -2.56995        1.78422       -0.45290
B         -3.95414        2.63180        0.06980
B         -4.04342        0.93630       -0.36878
B         -1.13050        2.59007       -0.62540
B         -1.18937       -2.47792       -0.57206
B          3.21200       -0.09501       -0.62605
B         -1.12647        0.86399       -0.75029
B          4.39086       -2.36392        0.53538
B         -5.32739       -1.61407        0.61981
B         -5.30579        0.01440        0.36874
B         -5.28718        1.84784        0.58338
B         -6.46294        0.91303        1.19657
B         -6.48097       -0.63951        1.21291
B          1.74824        0.84289       -0.83831
B         -0.76877       -2.19608       -1.02634
B          0.26996       -1.68873       -0.87623
B          5.90782       -1.66825        0.74082
B          6.12283        0.04319        0.78763
B          5.94516        1.77532        0.77519
B         -0.62371        0.11642        0.56698
