45
isomer_0236.log	Energy: -113675.8837295
B         -2.56269        1.73065        0.52996
B         -2.51273        3.30372       -0.03820
B         -1.15608        4.14916       -0.10917
B          0.26924        3.40348        0.54053
B         -1.17016        0.85128        1.06817
B          1.71787        0.84344        0.78795
B          1.64244        4.16958       -0.25811
B         -3.98446        0.84603        0.22508
B          1.72453        2.55135        0.43043
B         -3.86833        2.48498       -0.27772
B          0.22034        4.74766       -0.35328
B          3.00894        3.34037       -0.27807
B          3.12870        1.73274        0.22041
B          4.54685        0.89370       -0.14453
B          0.36884       -1.82509        1.11649
B          1.80164       -2.53246        0.48884
B          3.17290       -1.68025        0.26026
B          4.53206       -0.79823       -0.23825
B          4.40621       -2.44491       -0.74952
B          3.09141       -3.28051       -0.26622
B          1.74737       -4.14424       -0.24660
B          0.35052       -3.38451        0.51349
B          0.34070       -4.74570       -0.35217
B         -2.42831       -3.33410       -0.03904
B         -1.04828       -4.15648       -0.12326
B         -2.50937       -1.75882        0.48880
B         -3.81042       -2.53656       -0.29137
B         -3.95725       -0.90987        0.21819
B         -1.11971       -2.58933        0.76492
B         -1.18549        2.57790        0.78926
B          3.29405        0.01534        0.61000
B         -1.12976       -0.84833        1.04307
B          4.32588        2.49849       -0.77121
B         -5.10268        1.65155       -0.84769
B         -5.19493       -0.04428       -0.52323
B         -5.06118       -1.73871       -0.86337
B         -6.08369       -0.81442       -1.61326
B         -6.10269        0.70625       -1.60803
B          1.78654       -0.83034        0.91202
B         -2.61040       -0.01549        0.74748
B          0.31313        1.83104        1.08850
B          5.37225        1.56820       -1.33903
B          5.62008        0.03222       -1.30474
B          5.47314       -1.51949       -1.30179
B          0.34296        0.00300        1.09399
