45
isomer_2360.log	Energy: -109494.5518074
B          2.63365       -1.63157        0.30581
B          2.61863       -3.25790       -0.12129
B          1.20855       -4.07514       -0.38699
B         -0.24466       -3.25338        0.18792
B          1.17791       -0.74316        0.63812
B         -1.69686       -0.76393        0.72452
B         -1.63839       -4.01327       -0.52231
B          4.09568       -0.76139        0.25647
B         -1.62424       -2.35173        0.11787
B          4.02921       -2.43927       -0.24882
B         -0.21622       -4.67812       -0.68175
B         -3.06697       -3.16064       -0.51136
B         -3.08680       -1.55610        0.10158
B         -4.54360       -0.72367       -0.37052
B         -0.25258        1.78372        0.86364
B         -1.63275        2.50195        0.25865
B         -3.09252        1.70347        0.19612
B         -4.54644        0.89469       -0.32358
B         -4.38171        2.45909       -0.52362
B         -3.07838        3.34090       -0.32279
B         -1.65280        4.19773       -0.28416
B         -0.25634        3.40284        0.38098
B         -0.23299        4.87569       -0.40465
B          2.60688        3.43532        0.07284
B          1.19392        4.26164       -0.14519
B          2.62765        1.78703        0.40497
B          4.02031        2.63042       -0.10177
B          4.09271        0.92631        0.30542
B          1.19616        2.60372        0.59210
B          1.20505       -2.46275        0.44515
B         -3.17262       -0.03792        0.54246
B          1.17507        0.87575        0.68507
B         -4.37341       -2.27325       -0.66088
B          5.35180       -1.61791       -0.72992
B          5.34618        0.00578       -0.44880
B          5.34573        1.84296       -0.62953
B          6.51242        0.90808       -1.25971
B          6.51514       -0.64399       -1.30472
B         -1.69975        0.88140        0.77224
B          0.19815       -1.62794        3.29300
B         -0.24653       -1.66495        0.76361
B         -5.88336       -1.55897       -0.85367
B         -6.08146        0.15509       -0.86889
B         -5.88672        1.88485       -0.82442
B         -0.56272       -2.06151        0.62084
