45
isomer_2361.log	Energy: -112179.3446511
B          2.62099       -1.59861        0.37957
B          2.62941       -3.23175       -0.02092
B          1.23106       -4.07497       -0.26672
B         -0.23222       -3.26652        0.30146
B          1.15307       -0.72754        0.70412
B         -1.72062       -0.79142        0.80418
B         -1.61706       -4.05942       -0.38983
B          4.06907       -0.70682        0.30929
B         -1.62596       -2.38761        0.22314
B          4.02650       -2.39357       -0.16830
B         -0.18544       -4.70468       -0.54502
B         -3.05868       -3.22895       -0.38614
B         -3.10079       -1.61510        0.20068
B         -4.57241       -0.81316       -0.27815
B         -0.31556        1.78023        0.89509
B         -1.70938        2.46700        0.28489
B         -3.15681        1.64510        0.24215
B         -4.60023        0.80551       -0.25756
B         -4.46075        2.36879       -0.48381
B         -3.17043        3.27385       -0.30341
B         -1.75819        4.15317       -0.28536
B         -0.34663        3.39099        0.38615
B         -0.34965        4.85098       -0.42346
B          2.51436        3.46277        0.06424
B          1.08777        4.26342       -0.16065
B          2.56223        1.82065        0.42307
B          3.93936        2.67710       -0.10379
B          4.04006        0.98120        0.33076
B          1.11904        2.61802        0.60351
B          1.20612       -2.44943        0.53905
B         -3.20828       -0.09142        0.61717
B          1.12524        0.89168        0.72471
B         -4.37941       -2.36446       -0.54402
B          5.33403       -1.55981       -0.66884
B          5.30438        0.06799       -0.41418
B          5.27454        1.90174       -0.62481
B          6.45286        0.97486       -1.24507
B          6.47954       -0.57751       -1.26482
B         -1.74890        0.85423        0.82511
B          1.83212       -1.93829        1.42775
B         -0.25628       -1.66911        0.85121
B         -5.90112       -1.67690       -0.74142
B         -6.12593        0.03341       -0.78363
B         -5.95794        1.76647       -0.76823
B         -0.44306       -1.12209       -0.00915
