45
isomer_2362.log	Energy: -112823.9541322
B          2.56868        1.76898       -0.45913
B          2.54261        3.40403       -0.06730
B          1.12725        4.21580        0.18687
B         -0.32185        3.37041       -0.36365
B          1.11861        0.86221       -0.76566
B         -1.75658        0.85863       -0.83975
B         -1.71850        4.13462        0.33612
B          4.03774        0.91154       -0.39743
B         -1.69394        2.45975       -0.26797
B          3.96015        2.59942        0.07168
B         -0.30098        4.81388        0.47481
B         -3.14033        3.27081        0.34997
B         -3.15008        1.65324       -0.22797
B         -4.59821        0.81988        0.26850
B         -0.29279       -1.68007       -0.93004
B         -1.66465       -2.39576       -0.30352
B         -3.13041       -1.60756       -0.25184
B         -4.58845       -0.79909        0.25665
B         -4.41050       -2.35744        0.48981
B         -3.10110       -3.23318        0.30235
B         -1.66896       -4.07947        0.27598
B         -0.28168       -3.28831       -0.41240
B         -0.24333       -4.74354        0.40484
B          2.58300       -3.29171       -0.11632
B          1.17756       -4.12412        0.12582
B          2.58931       -1.65090       -0.48417
B          3.99074       -2.47218        0.03455
B          4.04792       -0.77680       -0.40979
B          1.16354       -2.48263       -0.64721
B          1.13297        2.58575       -0.61011
B         -3.22575        0.12523       -0.63547
B          1.12837       -0.75730       -0.77751
B         -4.43906        2.37669        0.52446
B          5.29124        1.79906        0.56460
B          5.29727        0.16966        0.31875
B          5.31212       -1.66312        0.53925
B          6.47405       -0.70569        1.14385
B          6.46469        0.84697        1.15521
B         -1.74665       -0.78732       -0.85180
B          1.86901       -1.52800        1.04292
B         -0.31360        1.76990       -0.90478
B         -5.94248        1.65497        0.73938
B         -6.12694       -0.05985        0.79261
B         -5.91871       -1.78859        0.78476
B         -0.10131       -0.19881       -0.45988
