45
isomer_2363.log	Energy: -113441.9660935
B         -2.45065        1.82356        0.46582
B         -2.37332        3.45167       -0.11281
B         -0.97881        4.21733       -0.28016
B          0.44125        3.42765        0.33893
B         -1.14746        0.95929        1.03364
B          1.77644        0.86194        0.72876
B          1.83438        4.13128       -0.42216
B         -3.72982        1.01869       -0.01612
B          1.84793        2.55073        0.45851
B         -3.79740        2.69158       -0.16104
B          0.45544        4.75200       -0.56227
B          3.19403        3.24631       -0.35020
B          3.21517        1.67910        0.16637
B          4.64528        0.72760        0.04694
B          0.27732       -1.65371        1.30355
B          1.55249       -2.48785        0.56531
B          3.02513       -1.74409        0.31666
B          4.41208       -0.90740       -0.21343
B          4.26541       -2.56354       -0.59823
B          2.82907       -3.27230       -0.17074
B          1.38026       -3.97960       -0.24521
B         -0.07619       -3.24199        0.39267
B          0.04954       -4.49947       -0.66370
B         -2.66279       -3.19347       -0.79673
B         -1.38567       -4.10405       -0.81239
B         -2.47498       -1.74108        0.39380
B         -3.73997       -2.13546       -0.65063
B         -3.68431       -0.64433       -0.00697
B         -1.81987       -3.42109        0.59062
B         -1.08854        2.68675        0.57240
B          3.25594       -0.02802        0.65462
B         -1.28501       -0.63234        1.02304
B          4.49922        2.36213       -0.68944
B         -5.12831        1.93611       -0.51058
B         -5.17699        0.23866       -0.07872
B         -5.16566       -1.31563       -0.68008
B         -6.37144       -0.47180       -0.99707
B         -6.24639        1.00982       -1.06115
B          1.68387       -0.78881        1.00675
B          0.24981        0.09510        0.96613
B          0.39960        1.88220        0.97245
B          5.52099        1.32834       -1.14605
B          5.69631       -0.21243       -1.10566
B          5.44678       -1.75515       -1.08472
B         -1.17016       -2.28420        1.41929
