45
isomer_2364.log	Energy: -113314.1408522
B          2.27050        1.90597       -0.28031
B          2.19476        3.55322        0.10011
B          0.75270        4.29087        0.08579
B         -0.60503        3.44915       -0.56384
B          0.86089        0.95668       -0.70591
B         -1.81041        0.79643       -0.88179
B         -2.05761        4.11026        0.11417
B          3.76527        1.17566       -0.13639
B         -1.98269        2.47362       -0.46430
B          3.58478        2.81467        0.33938
B         -0.69217        4.79720        0.26205
B         -3.38661        3.17425        0.13818
B         -3.33378        1.57897       -0.30486
B         -4.66754        0.62940        0.14903
B         -0.30413       -1.57668       -0.96349
B         -1.58056       -2.44136       -0.25753
B         -3.07820       -1.75859       -0.16457
B         -4.51095       -1.04254        0.21792
B         -4.27703       -2.59783        0.78302
B         -2.78092       -3.31770        0.50450
B         -1.36715       -3.98275        0.53561
B         -0.12723       -3.19164       -0.51281
B          0.18533       -4.50707        0.52669
B          2.96243       -3.18247       -0.15599
B          1.83587       -4.15586        0.28320
B          2.76104       -1.50153       -0.41643
B          4.24893       -2.15618       -0.04241
B          3.98542       -0.49143       -0.27582
B          1.44177       -2.50843       -0.70820
B          0.94751        2.76075       -0.67222
B         -3.26889       -0.11800       -0.55300
B          2.23346        0.15421       -0.36964
B         -4.73583        2.29703        0.45479
B          4.92955        2.11856        0.82221
B          5.13216        0.45964        0.48738
B          5.40229       -1.25069        0.55531
B          6.37634       -0.21102        1.22087
B          6.18407        1.29171        1.33442
B         -1.70042       -0.83535       -0.82096
B          0.93732       -4.20498       -0.92392
B         -0.53250        1.72679       -1.02688
B         -5.86924        1.30689        0.88466
B         -5.89402       -0.25852        1.00560
B         -5.53102       -1.78190        1.16460
B          1.10152       -0.74943       -0.76822
