45
isomer_2365.log	Energy: -113254.8245802
B          2.66025       -1.60568        0.30823
B          2.79572       -3.39056       -0.24907
B          1.34091       -4.29551       -0.31279
B         -0.08868       -3.47151        0.52947
B          1.10429       -0.58193        1.01798
B         -1.95908       -0.73422        1.20738
B         -1.43256       -4.10928       -0.24377
B          3.99534       -0.73535        0.22237
B         -1.56089       -2.47820        0.53596
B          4.03489       -2.32430       -0.41120
B         -0.08491       -4.78744       -0.43560
B         -2.80491       -3.23313       -0.28159
B         -3.03337       -1.74762        0.30550
B         -4.45378       -0.91966       -0.28575
B         -0.51603        1.77583        1.03371
B         -1.89058        2.49727        0.36404
B         -3.30506        1.68378        0.23372
B         -4.68940        0.75269       -0.11976
B         -4.53477        2.32586       -0.77801
B         -3.23275        3.21801       -0.36642
B         -1.89832        4.10913       -0.38409
B         -0.52880        3.43286        0.48151
B         -0.50644        4.72518       -0.48096
B          2.29072        3.44079        0.08812
B          0.87869        4.21654       -0.10569
B          2.39861        1.85543        0.55305
B          3.69376        2.67552       -0.10338
B          3.88661        1.05230        0.30722
B          0.95564        2.65898        0.73007
B          1.66305       -2.92945        0.59503
B         -3.35992       -0.02050        0.65974
B          0.97215        0.95988        0.94151
B         -4.23896       -2.54040       -0.70282
B          5.20214       -1.39988       -0.90884
B          5.14303        0.26946       -0.48112
B          4.99155        1.95475       -0.67145
B          6.09427        1.12653       -1.44616
B          6.17422       -0.36867       -1.55432
B         -1.89705        0.85806        0.94630
B          2.51227        0.11546        0.84608
B         -0.59535       -1.36787        1.44251
B         -5.44084       -1.75362       -1.20381
B         -5.70043       -0.21392       -1.26393
B         -5.54575        1.32007       -1.33436
B          0.51047       -2.01570        0.77538
