45
isomer_2366.log	Energy: -113458.7474418
B         -2.54920        1.66148        0.63452
B         -2.53824        3.38231        0.05481
B         -1.18986        4.14655       -0.02029
B          0.27381        3.43673        0.65407
B         -1.20228        0.93695        1.06780
B          1.74959        0.92446        0.98557
B          1.64700        4.15869       -0.19987
B         -3.90624        0.91239        0.15429
B          1.70927        2.56984        0.47535
B         -3.79887        2.51384       -0.20097
B          0.22311        4.70685       -0.31625
B          3.01516        3.32268       -0.26922
B          3.08760        1.74693        0.22332
B          4.35999        0.78823       -0.39834
B          0.28787       -1.73389        1.45911
B          1.40965       -2.41363        0.04978
B          3.00064       -1.71857        0.11018
B          4.46215       -0.86742       -0.10860
B          4.20860       -2.50211       -0.76299
B          2.87398       -3.28661       -0.30057
B          1.55645       -4.14118       -0.00570
B          0.23150       -3.32981        0.94079
B          0.18162       -4.71715        0.07925
B         -2.52364       -3.31430       -0.04980
B         -1.22550       -4.12585        0.18817
B         -2.56790       -1.60892        0.43693
B         -3.80472       -2.45369       -0.31227
B         -3.89384       -0.85406        0.10371
B         -1.08636       -2.40789        0.25471
B         -1.20134        2.57718        0.74555
B          3.15010       -0.00000        0.50016
B         -1.21663       -0.74015        0.83084
B          4.33422        2.46540       -0.76535
B         -5.09327        1.68989       -0.77094
B         -5.15287        0.03561       -0.44823
B         -5.11867       -1.60937       -0.86898
B         -6.13247       -0.69958       -1.55503
B         -6.12701        0.79707       -1.52013
B          1.57905       -0.75243        0.51611
B          0.24693        0.00386        1.24640
B          0.32606        1.81873        1.21071
B          5.42811        1.53709       -1.27887
B          5.57335       -0.03989       -1.27177
B          5.31290       -1.56239       -1.26434
B          0.10021       -1.25386       -0.23359
