45
isomer_2367.log	Energy: -113633.9354952
B         -3.14567       -1.48261       -1.08611
B         -3.04631       -3.06430       -1.23359
B         -2.01256       -3.94468       -0.45279
B         -0.24640       -3.27366       -0.96799
B         -1.40194       -0.55879       -0.75370
B          1.43724       -0.87205       -0.81902
B          0.88209       -4.13011        0.08252
B         -3.02299        0.19109       -0.69789
B          1.23710       -2.55890       -0.44376
B         -3.00361       -2.68767        0.40924
B         -0.61613       -4.47946        0.01701
B          2.37529       -3.49035        0.26962
B          2.71336       -1.91071       -0.20165
B          4.18293       -1.21196        0.18887
B          0.31636        1.83920       -1.28699
B          1.80634        2.45466       -0.66410
B          3.08481        1.51217       -0.29905
B          4.29673        0.46720        0.34316
B          4.32476        2.14440        0.76486
B          3.12661        3.08279        0.19149
B          1.84348        4.06796        0.05153
B          0.42948        3.44850       -0.75021
B          0.51436        4.78906        0.11142
B         -2.36029        3.67722       -0.12380
B         -0.96000        4.33075       -0.15048
B         -2.61113        1.98220       -0.64416
B         -3.54201        2.84589        0.52114
B         -4.01000        1.34403       -0.04936
B         -1.15245        2.73372       -0.83873
B         -1.58099       -2.24925       -0.84021
B          3.05577       -0.23237       -0.59942
B         -1.27530        1.06817       -1.10315
B          3.76710       -2.78449        0.84398
B         -3.49557       -1.75161        1.58191
B         -3.68550        0.03841        1.04051
B         -4.29795        1.82352        1.47384
B         -4.58580        0.65091        2.35311
B         -4.10857       -0.72420        2.47857
B          1.67725        0.80451       -1.04311
B         -2.40250       -1.07092        0.50713
B         -0.00704       -1.65700       -1.28863
B          4.83989       -1.93859        1.46555
B          5.25922       -0.42359        1.44671
B          5.28148        1.12689        1.39941
B          0.11910        0.07400       -1.20369
