45
isomer_2369.log	Energy: -113433.8755430
B         -2.69536       -1.31491       -0.77187
B         -2.75740       -3.14029       -0.33871
B         -1.45260       -4.05597       -0.62376
B         -0.38155       -2.98753        0.35183
B         -1.31597       -0.61080       -1.25107
B          1.57750       -0.86717       -0.79579
B          1.05939       -4.02771        0.55136
B         -3.89287       -0.53604       -0.11375
B          1.14770       -2.40384        0.04440
B         -3.95964       -2.16228        0.00945
B         -0.08798       -4.70108       -0.21495
B          2.46012       -3.22835        0.80256
B          2.71259       -1.74435        0.18866
B          4.31737       -1.06806        0.33660
B          0.41978        1.86262       -1.22713
B          1.87329        2.47543       -0.52609
B          3.19792        1.54056       -0.31433
B          4.50865        0.57044        0.10856
B          4.51980        2.24553        0.57158
B          3.25119        3.17779        0.10867
B          1.97006        4.08521        0.10286
B          0.49925        3.45152       -0.70319
B          0.59879        4.72232        0.26215
B         -2.24889        3.56178        0.07441
B         -0.85518        4.24735        0.04770
B         -2.43206        1.88432       -0.60191
B         -3.49592        2.74574        0.44615
B         -3.74895        1.17812       -0.01100
B         -1.02431        2.69642       -0.80140
B         -1.40866       -2.29464       -0.75622
B          3.15692       -0.18834       -0.53627
B         -1.18810        1.03720       -1.16460
B          3.86525       -2.57108        1.13181
B         -5.09704       -1.37204        0.84278
B         -5.02988        0.34873        0.65961
B         -4.75052        1.91156        1.16246
B         -5.75471        1.02289        1.95089
B         -5.89115       -0.47319        1.79555
B          1.71073        0.81364       -0.92784
B          0.10724       -3.37440       -1.28801
B          0.16548       -1.71911       -1.28231
B          5.12117       -1.77401        1.50501
B          5.51483       -0.29396        1.31667
B          5.49655        1.27435        1.16337
B          0.21714        0.05560       -1.28485
