45
isomer_2371.log	Energy: -112570.9841453
B          2.48222        1.85880       -0.46457
B          2.40403        3.49678       -0.10393
B          1.00566        4.28865        0.12189
B         -0.41186        3.42806       -0.40928
B          1.05447        0.97289       -0.75181
B         -1.80883        0.84804       -0.85208
B         -1.80306        4.16322        0.27542
B          3.96786        1.03180       -0.36155
B         -1.76925        2.49466       -0.29983
B          3.79748        2.69797        0.06164
B         -0.41110        4.82763        0.39260
B         -3.19229        3.28243        0.31310
B         -3.19543        1.66308       -0.23543
B         -4.62154        0.79849        0.27698
B         -0.33934       -1.72535       -0.94260
B         -1.70445       -2.44955       -0.27933
B         -3.15186       -1.65442       -0.21903
B         -4.57680       -0.83928        0.28470
B         -4.42751       -2.41323        0.55239
B         -3.08046       -3.28919        0.34536
B         -1.68630       -4.12677        0.31708
B         -0.32315       -3.35582       -0.38518
B         -0.27425       -4.75111        0.43810
B          2.66127       -3.53943        0.04941
B          1.12724       -4.20571        0.18514
B          2.67854       -1.46284       -0.47560
B          4.12762       -2.37407        0.13929
B          4.07721       -0.62550       -0.34844
B          1.12197       -2.55434       -0.65904
B          1.04654        2.67262       -0.63886
B         -3.26338        0.07615       -0.61775
B          1.11684       -0.75777       -0.80496
B         -4.51510        2.39441        0.52981
B          5.13814        1.95955        0.61144
B          5.22173        0.31840        0.40904
B          5.29624       -1.46459        0.66214
B          6.33900       -0.46099        1.28707
B          6.30409        1.04977        1.26192
B         -1.78846       -0.83494       -0.84845
B          2.70141       -2.77384       -0.56655
B         -0.38291        1.81797       -0.92079
B         -5.90893        1.55770        0.73988
B         -6.04485       -0.06979        0.80196
B         -5.83976       -1.72535        0.81322
B          0.85131       -0.24524        0.31546
