45
isomer_2373.log	Energy: -111954.9608110
B          2.61728        1.72429       -0.47907
B          2.60673        3.35983       -0.08858
B          1.19897        4.18627        0.16041
B         -0.25695        3.35537       -0.39414
B          1.15897        0.83220       -0.78958
B         -1.71584        0.85806       -0.87294
B         -1.64793        4.13442        0.30054
B          4.07726        0.85186       -0.41198
B         -1.63861        2.45890       -0.30219
B          4.01549        2.54082        0.05558
B         -0.22397        4.79920        0.44328
B         -3.07859        3.28526        0.31047
B         -3.10307        1.66741       -0.26626
B         -4.56128        0.84935        0.22618
B         -0.27790       -1.69560       -0.95657
B         -1.65904       -2.39668       -0.33393
B         -3.11679       -1.59344       -0.28758
B         -4.56809       -0.76964        0.21559
B         -4.40689       -2.32955        0.45051
B         -3.10595       -3.21883        0.26795
B         -1.68249       -4.07980        0.24684
B         -0.28496       -3.30346       -0.43767
B         -0.26418       -4.75835        0.38080
B          2.57856       -3.33602       -0.13235
B          1.16388       -4.15377        0.10589
B          2.60289       -1.69565       -0.50143
B          3.99415       -2.53085        0.02243
B          4.07015       -0.83650       -0.42302
B          1.16920       -2.51284       -0.66844
B          1.19052        2.55562       -0.63531
B         -3.19312        0.13993       -0.67283
B          1.15216       -0.78734       -0.80017
B         -4.38697        2.40464        0.48146
B          5.33670        1.72724        0.55340
B          5.32680        0.09766        0.30882
B          5.32213       -1.73499        0.53077
B          6.49188       -0.78905        1.13837
B          6.49841        0.76363        1.14852
B         -1.72277       -0.78792       -0.88370
B          0.21626       -0.65107        2.26895
B         -0.26338        1.75442       -0.93402
B         -5.89840        1.69856        0.69207
B         -6.10062       -0.01423        0.74602
B         -5.91012       -1.74503        0.74016
B          0.27956       -0.32431       -0.52327
