45
isomer_2374.log	Energy: -113736.6166875
B         -3.09258        1.12316        0.42670
B         -3.31443        2.86306        0.07010
B         -2.06160        3.83346       -0.03105
B         -0.47874        3.11793        0.14465
B         -1.54655        0.44886        0.60893
B          1.33859        0.95531        0.92571
B          0.78474        4.18358       -0.19816
B         -4.49490        0.35384        0.64105
B          1.06075        2.57807        0.46174
B         -4.56614        1.88435       -0.09958
B         -0.71847        4.63299       -0.19687
B          2.27489        3.54683       -0.22930
B          2.60520        1.96333        0.28532
B          4.18339        1.27168        0.11933
B          1.39683       -2.16218        1.94082
B          1.17946       -1.80378       -0.05932
B          2.81035       -1.41541        0.09105
B          4.07692       -0.35322       -0.37124
B          4.07718       -1.91100       -1.08213
B          2.82029       -2.90075       -0.71065
B          2.19851       -3.06657        0.85727
B          0.45331       -3.26622        0.80552
B          1.38982       -3.56026       -0.62073
B         -1.61851       -2.47310       -1.08186
B         -0.16601       -3.03879       -0.91352
B         -1.54076       -1.17250        1.35778
B         -2.60248       -2.29247        0.37218
B         -3.12266       -0.63935        0.68794
B         -1.16195       -2.88563        0.69273
B         -1.84378        2.17701        0.49847
B          2.97867        0.31181        0.74119
B          0.02763       -0.23771        0.79447
B          3.67651        2.93261       -0.56902
B         -5.31012        0.71733       -0.84532
B         -4.22160       -0.68800       -0.63253
B         -3.30442       -2.11009       -1.02602
B         -4.56648       -1.72248       -1.84382
B         -5.47031       -0.56235       -1.69464
B          1.68931       -0.68726        1.34060
B         -0.57816       -1.40584       -0.27840
B         -0.24438        1.50402        0.57939
B          4.84007        2.09018       -1.09741
B          5.21125        0.61392       -1.24422
B          5.12287       -0.92855       -1.44195
B         -0.17153       -1.81980        1.82477
