45
isomer_2375.log	Energy: -112900.1348798
B          2.59963       -1.68180        0.39202
B          2.38634       -3.28974       -0.03709
B          1.04710       -4.11700       -0.19207
B         -0.36989       -3.36198        0.41220
B          1.25776       -0.76775        0.64102
B         -1.71912       -0.77538        0.91509
B         -1.80652       -4.07304       -0.33228
B          3.98355       -0.87992        0.28221
B         -1.77697       -2.44846        0.34646
B          3.89574       -2.45074       -0.29158
B         -0.40696       -4.68866       -0.47497
B         -3.09946       -3.16605       -0.30315
B         -3.11944       -1.67100        0.19923
B         -4.48239       -0.78579       -0.30647
B         -0.35323        1.75004        1.04950
B         -1.66248        2.51928        0.27410
B         -3.02538        1.76419        0.16822
B         -4.37394        0.92233       -0.30182
B         -4.39042        2.68553       -0.73372
B         -2.90002        3.30043       -0.37607
B         -1.57147        4.17340       -0.38447
B         -0.21022        3.41612        0.40438
B         -0.11017        4.74675       -0.46075
B          2.60826        3.31531        0.06616
B          1.32912        4.12770       -0.12646
B          2.62192        1.56712        0.58027
B          3.97744        2.39207       -0.12956
B          4.01889        0.81295        0.30777
B          1.29770        2.56874        0.70226
B          1.16138       -2.61305        0.58090
B         -3.15700        0.04748        0.54626
B          1.13823        0.79707        1.12631
B         -4.56309       -2.56365       -0.66700
B          5.18952       -1.80184       -0.81679
B          5.22957       -0.06028       -0.54083
B          5.23459        1.59631       -0.74313
B          6.37525        0.62214       -1.47878
B          6.34160       -0.91561       -1.50255
B         -1.68427        0.88384        0.88171
B          0.78544       -0.74676        2.30337
B         -0.41293       -1.70860        1.06700
B         -5.68229       -1.63151       -0.97814
B         -5.78601        0.01789       -0.99995
B         -5.55818        1.64447       -1.02654
B         -0.25719        0.52743       -0.04225
