45
isomer_2376.log	Energy: -113699.5676914
B          2.39358        1.98903       -0.65739
B          2.17243        3.51185        0.08799
B          0.76366        4.23092        0.15939
B         -0.59564        3.38378       -0.53275
B          1.08351        1.07751       -1.36629
B         -1.84682        0.73806       -1.08415
B         -2.02117        3.94069        0.30326
B          3.66901        1.06895        0.00896
B         -2.01718        2.42030       -0.54131
B          3.44569        2.70761        0.48477
B         -0.67336        4.65590        0.45257
B         -3.29805        2.94944        0.32771
B         -3.23175        1.35850       -0.28233
B         -4.41203        0.34653        0.39677
B         -0.25136       -1.65941       -1.67268
B         -1.26344       -2.56067       -0.62702
B         -2.77879       -2.02952       -0.25380
B         -4.16215       -1.33355        0.42959
B         -3.55489       -2.80863        1.07908
B         -2.18064       -3.42408        0.48152
B         -0.67070       -3.91230        0.22632
B          0.29431       -3.22300       -0.95382
B          0.89399       -3.89931        0.52678
B          3.20247       -2.30301        0.42938
B          2.34028       -3.50306        0.88534
B          2.60153       -1.47838       -1.17864
B          3.69886       -0.75072       -0.19187
B          2.46201        0.25651       -0.87826
B          1.96790       -2.96021       -0.53203
B          0.89927        2.69704       -0.80370
B         -3.19303       -0.33953       -0.59966
B          1.17018       -0.53484       -1.71852
B         -4.47124        1.98132        0.88953
B          4.50618        1.78144        1.27706
B          4.78465        0.12181        0.79841
B          4.43369       -1.52017        1.17864
B          5.23946       -0.72767        2.15837
B          5.19004        0.77425        2.23441
B         -1.69589       -1.02203       -1.23714
B          1.30910       -2.21978       -1.87385
B         -0.49542        1.83698       -1.17043
B         -5.34222        0.95070        1.55175
B         -5.22420       -0.61414        1.64486
B         -4.72867       -2.06671        1.73176
B         -0.41315        0.11164       -1.58858
