45
isomer_2379.log	Energy: -112918.2006754
B          2.45109        1.82700       -0.48068
B          2.39780        3.45950       -0.08103
B          0.96944        4.24476        0.18346
B         -0.46696        3.37629       -0.36438
B          1.01594        0.89601       -0.78481
B         -1.85904        0.84160       -0.84571
B         -1.87369        4.11227        0.34540
B          3.93543        0.99556       -0.42977
B         -1.82219        2.44091       -0.26668
B          3.83005        2.67961        0.04763
B         -0.46783        4.81599        0.48078
B         -3.27987        3.22324        0.36172
B         -3.26356        1.60845       -0.22379
B         -4.69432        0.74716        0.27540
B         -0.35080       -1.67020       -0.95468
B         -1.70677       -2.41309       -0.32524
B         -3.18605       -1.65134       -0.26312
B         -4.65584       -0.87130        0.25588
B         -4.44913       -2.42730        0.48086
B         -3.12527       -3.27873        0.28327
B         -1.67845       -4.09927        0.24633
B         -0.30869       -3.28038       -0.44468
B         -0.24066       -4.73846        0.36551
B          2.55695       -3.23417       -0.16179
B          1.16768       -4.09257        0.08288
B          2.53238       -1.59182       -0.52193
B          3.95060       -2.39042       -0.01353
B          3.97556       -0.69225       -0.45014
B          1.12087       -2.44803       -0.68234
B          1.00040        2.61878       -0.62121
B         -3.31398        0.08123       -0.63813
B          1.05444       -0.72301       -0.80434
B         -4.56166        2.30535        0.53796
B          5.17744        1.90078        0.53065
B          5.21128        0.27290        0.27711
B          5.25974       -1.56032        0.48890
B          6.40728       -0.58518        1.09265
B          6.37038        0.96700        1.11138
B         -1.81991       -0.80384       -0.86556
B          3.32942       -2.23680        1.14738
B         -0.43280        1.77870       -0.91307
B         -6.05100        1.55601        0.75638
B         -6.20470       -0.16205        0.80237
B         -5.96581       -1.88676        0.78542
B          2.06484        0.08816        0.19731
