45
isomer_0238.log	Energy: -113473.5798248
B          2.63654       -1.41054        0.53767
B          2.82208       -3.08963        0.40657
B          1.66096       -3.94109       -0.16342
B          0.05974       -3.15434        0.34381
B          1.07149       -0.85551        0.29368
B         -1.75387       -0.93619        1.07509
B         -1.16714       -3.71968       -0.79632
B          4.02949       -0.51021        0.47761
B         -1.53319       -2.48305        0.31985
B          4.14599       -2.11716        0.16877
B          0.38246       -3.98112       -1.00491
B         -2.66135       -3.24567       -0.61219
B         -3.00377       -1.80253        0.20369
B         -4.40317       -0.99888       -0.24571
B         -0.44466        1.66196        0.77383
B         -1.96795        2.39993        0.55032
B         -3.39259        1.55879        0.51069
B         -4.77613        0.54825        0.31448
B         -4.68609        2.24850       -0.29944
B         -3.40012        3.13799       -0.04783
B         -2.03203        3.98283       -0.22482
B         -0.56085        3.30393        0.34761
B         -0.65303        4.57408       -0.58797
B          2.24297        3.39288       -0.31357
B          0.83548        4.09446       -0.43155
B          2.41896        1.74302        0.30713
B          3.67758        2.61178       -0.44020
B          3.90226        1.16176        0.34855
B          0.95971        2.49503        0.12199
B          1.38014       -2.30980       -0.55402
B         -3.35102       -0.20271        0.82819
B          1.04191        0.81047        0.48540
B         -4.16113       -2.56093       -0.88029
B          5.36697       -1.30341       -0.34707
B          5.30520        0.39702       -0.14474
B          5.11347        2.01447       -0.66240
B          6.37557        1.16409       -1.07295
B          6.45917       -0.32088       -0.98808
B         -1.88740        0.76348        0.88501
B          1.38784       -2.43581        1.25422
B         -0.18870       -1.74954        1.24249
B         -5.43066       -1.81433       -1.16656
B         -5.81047       -0.29347       -0.93847
B         -5.70270        1.20980       -0.81888
B         -0.30796       -0.03802        0.94473
