45
isomer_2382.log	Energy: -109833.4432805
B          2.62465       -1.60281        0.35738
B          2.61848       -3.23498       -0.04709
B          1.21279       -4.06405       -0.29901
B         -0.24428       -3.24290        0.26691
B          1.16426       -0.71839        0.67980
B         -1.71019       -0.75477        0.77138
B         -1.63468       -4.02071       -0.43034
B          4.08146       -0.72487        0.29349
B         -1.62924       -2.35039        0.18670
B          4.02402       -2.40997       -0.18836
B         -0.20890       -4.67939       -0.58296
B         -3.06822       -3.17638       -0.42879
B         -3.09647       -1.56362        0.16186
B         -4.55889       -0.74635       -0.31927
B         -0.28067        1.80297        0.87267
B         -1.66601        2.50464        0.26012
B         -3.12117        1.69686        0.21117
B         -4.57115        0.87245       -0.29479
B         -4.41593        2.43486       -0.51680
B         -3.11748        3.32698       -0.33044
B         -1.69688        4.19258       -0.30613
B         -0.29471        3.41518        0.36760
B         -0.28128        4.87709       -0.43843
B          2.56777        3.46011        0.05416
B          1.14963        4.27505       -0.17290
B          2.59875        1.81674        0.40910
B          3.98561        2.66113       -0.11167
B          4.06867        0.96330        0.31901
B          1.16280        2.62757        0.58731
B          1.20118       -2.44031        0.51067
B         -3.19048       -0.04000        0.58177
B          1.15199        0.90097        0.70429
B         -4.38008       -2.29880       -0.58838
B          5.34099       -1.58765       -0.68306
B          5.32630        0.03973       -0.42449
B          5.31477        1.87419       -0.63071
B          6.48590        0.93748       -1.24983
B          6.49766       -0.61503       -1.27331
B         -1.72266        0.89102        0.79627
B          0.46653       -1.20214        2.39170
B         -0.25454       -1.64666        0.82051
B         -5.89451       -1.59610       -0.78850
B         -6.10269        0.11640       -0.82717
B         -5.91803        1.84771       -0.80703
B          0.01496       -2.81871        0.13557
