45
isomer_2384.log	Energy: -113441.9431819
B          2.45280        1.82329       -0.47221
B          2.37673        3.45162        0.10631
B          0.98318        4.21925        0.27331
B         -0.43852        3.42894       -0.34188
B          1.14897        0.95881       -1.03783
B         -1.77188        0.86137       -0.71398
B         -1.82912        4.13297        0.42349
B          3.73006        1.01613        0.01016
B         -1.84499        2.55212       -0.45710
B          3.79959        2.68952        0.15601
B         -0.45012        4.75502        0.55729
B         -3.18942        3.24780        0.35720
B         -3.20902        1.67833       -0.15045
B         -4.64455        0.73120       -0.05084
B         -0.27851       -1.65355       -1.30279
B         -1.55395       -2.48714       -0.56513
B         -3.02514       -1.74186       -0.31408
B         -4.41233       -0.90421        0.21453
B         -4.26858       -2.56143        0.59550
B         -2.83216       -3.27133        0.16938
B         -1.38394       -3.98025        0.24334
B          0.07375       -3.24254       -0.39379
B         -0.05346       -4.50079        0.66153
B          2.65921       -3.19588        0.79556
B          1.38196       -4.10622        0.81043
B          2.47402       -1.74336       -0.39582
B          3.73631       -2.13751        0.65139
B          3.68357       -0.64714        0.00519
B          1.81711       -3.42317       -0.59242
B          1.09101        2.68742       -0.57683
B         -3.25334       -0.02511       -0.65007
B          1.28571       -0.63361       -1.02624
B         -4.49724        2.36576        0.69206
B          5.12796        1.93311        0.51109
B          5.17596        0.23521        0.08357
B          5.16190       -1.31844        0.68582
B          6.36660       -0.47477        1.00725
B          6.24255        1.00707        1.06867
B         -1.68386       -0.78773       -1.00556
B          1.16874       -2.28518       -1.42085
B         -0.39778        1.88202       -0.97152
B         -5.52137        1.33128        1.14179
B         -5.69971       -0.20941        1.09981
B         -5.45113       -1.75241        1.07935
B         -0.24757        0.09481       -0.96062
