45
isomer_2385.log	Energy: -113113.3484082
B         -3.03485       -1.42169       -0.64525
B         -3.58511       -3.26448       -0.05197
B         -2.17193       -4.21736        0.07212
B         -0.59169       -3.06694       -0.65741
B         -1.97338       -0.11135       -0.94228
B          1.57472       -0.79953       -1.07973
B          0.66458       -4.00591        0.18437
B         -4.00022       -0.28298       -0.24304
B          1.07065       -2.46320       -0.50561
B         -4.44981       -1.94337        0.17305
B         -0.72366       -4.50715        0.23121
B          2.14654       -3.45644        0.31775
B          2.63251       -1.99583       -0.17189
B          4.14934       -1.48406        0.36487
B          1.04769        2.07899       -1.54706
B          2.47581        2.43986       -0.54785
B          3.57816        1.28809       -0.24527
B          4.66165        0.10237        0.30587
B          4.83249        1.67903        0.96166
B          3.72491        2.79785        0.45095
B          2.46954        3.83189        0.41015
B          1.08925        3.51634       -0.75849
B          1.11468        4.46092        0.50981
B         -1.74877        3.51072       -0.03420
B         -0.35356        4.07510        0.06707
B         -2.15878        1.88613       -0.61028
B         -3.13645        2.82373        0.38104
B         -3.63947        1.33061       -0.17278
B         -0.53135        2.66631       -0.87939
B         -2.27318       -2.93313       -0.74627
B          3.25339       -0.38059       -0.53485
B         -1.01768        1.06844       -1.20973
B          3.63826       -3.05390        0.80583
B         -5.22781       -0.88093        0.99055
B         -4.82470        0.73598        0.81473
B         -4.43254        2.35915        1.10865
B         -5.63652        1.69079        1.84311
B         -5.96666        0.22863        1.82632
B          2.05802        0.80330       -1.07133
B         -1.32908       -1.48959       -0.80944
B          0.22011       -1.45785       -1.41632
B          4.89946       -2.47422        1.39102
B          5.42978       -1.04097        1.47921
B          5.56362        0.52084        1.56042
B          0.51204        0.83642       -1.36932
