45
isomer_2387.log	Energy: -113473.6785552
B          2.58181       -1.69174        0.63702
B          2.48168       -3.07665       -0.45753
B          1.12624       -3.81943       -0.54815
B         -0.12770       -3.32192        0.55201
B          1.28527       -0.71366        0.71293
B         -1.66520       -0.76358        0.83505
B         -1.64426       -4.12040       -0.18560
B          3.98383       -0.84159        0.30910
B         -1.64451       -2.48253        0.33390
B          3.85287       -2.29380       -0.38247
B         -0.29070       -4.48661       -0.63048
B         -3.02296       -3.30018       -0.07524
B         -3.11101       -1.71426        0.42159
B         -4.55543       -0.84868        0.09941
B         -0.34456        1.85745        0.98853
B         -1.76677        2.55432        0.46895
B         -3.16434        1.75616        0.23270
B         -4.53740        0.80248       -0.11618
B         -4.43909        2.45360       -0.69073
B         -3.07963        3.29509       -0.34324
B         -1.71236        4.14442       -0.43534
B         -0.32739        3.37422        0.29256
B         -0.30491        4.69064       -0.61137
B          2.48663        3.29996       -0.10126
B          1.11519        4.08962       -0.31425
B          2.52636        1.63345        0.60492
B          3.81432        2.48512       -0.12409
B          3.95102        0.92146        0.33129
B          1.16133        2.57820        0.54958
B          1.33655       -2.73542        1.04716
B         -3.25666        0.03756        0.67480
B          1.16064        0.91220        1.06893
B         -4.39316       -2.46895       -0.45558
B          5.24670       -1.52055       -0.62315
B          5.28857        0.08610       -0.08374
B          5.21094        1.72264       -0.50224
B          6.30839        0.87678       -1.13694
B          6.33271       -0.59453       -1.19900
B         -1.76832        0.88912        0.89583
B          1.10243       -1.99590       -0.53355
B         -0.18358       -1.60048        0.52290
B         -5.47256       -1.58037       -1.01207
B         -5.72232       -0.04547       -1.05020
B         -5.56248        1.50463       -1.11019
B         -0.25617        0.05147        1.14341
