45
isomer_2388.log	Energy: -113431.8311165
B         -2.46887        1.77236        0.52578
B         -2.43395        3.46075       -0.06305
B         -1.06050        4.21241       -0.23913
B          0.37182        3.41127        0.29078
B         -1.16005        0.95589        1.01792
B          1.74687        0.89014        0.76471
B          1.77356        4.13974       -0.45461
B         -3.82434        1.01164        0.18614
B          1.79990        2.53257        0.28903
B         -3.78999        2.65753       -0.10911
B          0.36869        4.75872       -0.55542
B          3.13542        3.28003       -0.39857
B          3.19063        1.69680        0.18277
B          4.60352        0.77836       -0.02552
B          0.32562       -1.68120        1.33440
B          1.59667       -2.48213        0.53488
B          3.05820       -1.70662        0.38080
B          4.47318       -0.88713       -0.09128
B          4.30376       -2.52844       -0.55481
B          2.88714       -3.25644       -0.14001
B          1.45680       -3.95576       -0.29898
B         -0.02845       -3.25845        0.40387
B          0.12008       -4.41750       -0.75146
B         -2.65948       -3.22465       -0.79476
B         -1.30729       -4.00970       -0.89038
B         -2.40738       -1.67921        0.41884
B         -3.77536       -2.21630       -0.52521
B         -3.77646       -0.75772        0.12426
B         -1.79033       -3.32650        0.53078
B         -1.12489        2.65831        0.68369
B          3.28156       -0.00395        0.71352
B         -1.20157       -0.65893        0.98414
B          4.44181        2.38057       -0.76034
B         -5.15180        1.84586       -0.50114
B         -5.15470        0.16993       -0.17229
B         -5.16052       -1.41190       -0.72805
B         -6.27736       -0.51112       -1.20090
B         -6.25579        0.97303       -1.12019
B          1.70934       -0.78171        1.03613
B         -1.11916       -2.30847        1.46735
B          0.38024        1.87714        0.94925
B          5.48261        1.37736       -1.22313
B          5.67684       -0.15751       -1.13116
B          5.46371       -1.70838       -1.05532
B          0.28030        0.08931        0.96578
