45
isomer_2389.log	Energy: -113466.7528229
B         -1.47089       -1.18854       -0.40746
B         -0.87974       -2.86149        0.66995
B         -0.36810       -4.10288       -0.39760
B          0.90650       -3.22310       -1.26109
B         -0.23609       -0.42424       -1.28177
B          1.47187       -0.48974       -0.51881
B          2.32530       -3.76197       -0.02825
B         -3.15406       -1.07580        0.12068
B          1.89954       -2.11460       -0.22406
B         -2.28785       -2.14647        0.91547
B          1.09284       -4.63123       -0.33371
B          3.50554       -2.62558        0.12165
B          3.19971       -1.05718       -0.20020
B          4.39694        0.16249        0.02129
B         -0.26583        1.78474       -1.25183
B          0.79063        2.68040       -0.23215
B          2.29666        2.21231        0.02095
B          3.76490        1.58708        0.55026
B          3.39553        3.20496        0.96165
B          1.88285        3.71624        0.48710
B          0.38649        4.27673        0.32471
B         -0.69246        3.35167       -0.72018
B         -1.10482        4.54471        0.22260
B         -3.43704        2.69523       -0.53151
B         -2.32024        3.69576       -0.26807
B         -3.02666        0.93058       -0.91129
B         -4.51544        1.64421       -0.27842
B         -4.24734        0.08062       -0.46391
B         -1.92003        2.15542       -1.08041
B         -0.68714       -2.54738       -1.09686
B          2.79801        0.62032       -0.43802
B         -1.47980        0.56283       -1.22940
B          4.63463       -1.55996        0.50280
B         -3.72827       -1.94286        1.51799
B         -4.79268       -0.96606        0.63484
B         -5.54149        0.55772        0.50881
B         -5.92858       -0.36217        1.68640
B         -5.05640       -1.45690        2.16461
B          1.06426        1.05887       -0.79972
B          0.73406       -3.19803        0.62257
B          0.83489       -1.60257       -1.72043
B          5.49827       -0.39268        1.01436
B          5.30814        1.12939        1.19169
B          4.71539        2.58529        1.32638
B          0.23800       -1.50616        0.08840
