45
isomer_0239.log	Energy: -113437.5528602
B          2.45759       -1.70673        0.45350
B          2.63718       -3.19693       -0.79014
B          1.30186       -4.00808       -0.87114
B          0.04427       -3.24331        0.37008
B          1.25881       -0.64802        0.99532
B         -1.70809       -0.79323        1.02807
B         -1.45250       -3.96980       -0.29159
B          3.77942       -0.73471        0.12440
B         -1.59987       -2.49586        0.54339
B          3.74862       -2.17927       -0.57951
B         -0.11774       -4.45468       -0.73621
B         -2.88483       -3.26370       -0.15542
B         -3.06130       -1.72402        0.36759
B         -4.42508       -0.87371       -0.18405
B         -0.37649        1.86221        0.92245
B         -1.80415        2.53139        0.35532
B         -3.20508        1.70494        0.18814
B         -4.62941        0.76946        0.04084
B         -4.46849        2.40154       -0.69510
B         -3.15710        3.28323       -0.35434
B         -1.78469        4.14435       -0.43530
B         -0.39032        3.41028        0.28408
B         -0.38680        4.75634       -0.56543
B          2.42152        3.43848       -0.09873
B          1.05313        4.19862       -0.27193
B          2.46815        1.76573        0.49523
B          3.80397        2.64922       -0.09906
B          3.80551        1.00073        0.18627
B          1.11765        2.66088        0.59950
B          1.79222       -3.35589        0.56137
B         -3.27559       -0.01342        0.70177
B          1.15438        0.95834        1.02605
B         -4.30470       -2.52763       -0.58494
B          5.16630       -1.37535       -0.71937
B          5.17768        0.18964       -0.13575
B          5.15026        1.87321       -0.48021
B          6.23662        0.99175       -1.12107
B          6.30902       -0.49321       -1.15886
B         -1.75587        0.86065        0.69340
B         -0.26217        0.06726        0.95709
B         -0.30205       -1.68816        1.28279
B         -5.46439       -1.70250       -1.07509
B         -5.69083       -0.15156       -1.10236
B         -5.50711        1.38282       -1.14613
B          1.13048       -2.30132        1.47509
