45
isomer_2390.log	Energy: -112592.0653516
B         -2.61040       -1.65934       -0.49862
B         -2.61312       -3.30162       -0.13151
B         -1.20883       -4.14043        0.10621
B          0.24913       -3.31400       -0.42958
B         -1.14868       -0.79266       -0.79346
B          1.72463       -0.81014       -0.86643
B          1.63122       -4.10750        0.25592
B         -4.05640       -0.77708       -0.41894
B          1.63944       -2.42684       -0.31982
B         -4.00492       -2.46867        0.01904
B          0.20211       -4.75683        0.38210
B          3.06451       -3.26656        0.28275
B          3.10538       -1.64179       -0.26688
B          4.56699       -0.83425        0.23814
B          0.31318        1.76073       -0.91817
B          1.69485        2.44352       -0.28331
B          3.14092        1.63063       -0.24388
B          4.58304        0.78926        0.24907
B          4.43860        2.34968        0.51018
B          3.13366        3.24551        0.33201
B          1.71645        4.11460        0.31997
B          0.31681        3.36001       -0.37635
B          0.30403        4.78794        0.45701
B         -2.54600        3.39651       -0.07655
B         -1.12685        4.20374        0.17398
B         -2.58451        1.76269       -0.46952
B         -3.96184        2.58923        0.06578
B         -4.04273        0.91373       -0.40461
B         -1.14750        2.58189       -0.62000
B         -1.19241       -2.50347       -0.66306
B          3.20701       -0.09884       -0.65167
B         -1.15168        0.85497       -0.77692
B          4.39157       -2.39889        0.47594
B         -5.31381       -1.65746        0.53140
B         -5.29533       -0.02228        0.31180
B         -5.28238        1.79274        0.55861
B         -6.44634        0.84815        1.14830
B         -6.46553       -0.69643        1.13806
B          1.74379        0.84172       -0.85513
B         -0.94098       -1.24349        1.67519
B          0.26615       -1.70533       -0.94534
B          5.88281       -1.68401        0.69346
B          6.09002        0.01179        0.76825
B          5.91476        1.72053        0.78619
B         -0.18085        0.30833       -0.46959
