45
isomer_2393.log	Energy: -113458.0792841
B         -2.55183        1.67354        0.61618
B         -2.53315        3.38921        0.00770
B         -1.17301        4.14138       -0.09745
B          0.28034        3.42121        0.56196
B         -1.21517        0.93613        1.04656
B          1.75578        0.91323        0.98735
B          1.66890        4.14192       -0.25222
B         -3.92479        0.92681        0.18293
B          1.72966        2.55611        0.46900
B         -3.80110        2.53240       -0.21006
B          0.24726        4.70101       -0.38896
B          3.03641        3.30187       -0.27676
B          3.10620        1.72766        0.23505
B          4.40636        0.77309       -0.31008
B          0.29428       -1.77064        1.46186
B          1.38461       -2.38905       -0.08154
B          3.00340       -1.73113        0.12148
B          4.48641       -0.88059       -0.05854
B          4.22087       -2.49519       -0.75454
B          2.86674       -3.26960       -0.37269
B          1.53263       -4.11361       -0.13500
B          0.23079       -3.32469        0.85696
B          0.15522       -4.67762       -0.06927
B         -2.55766       -3.29135       -0.04574
B         -1.25192       -4.10330        0.11519
B         -2.60604       -1.59682        0.50657
B         -3.84329       -2.42232       -0.26459
B         -3.93366       -0.83675        0.18446
B         -1.12958       -2.40002        0.28883
B         -1.19458        2.57082        0.68845
B          3.17654       -0.01837        0.56061
B         -1.22098       -0.75461        0.88566
B          4.37467        2.44566       -0.72081
B         -5.09676        1.69778       -0.76368
B         -5.18672        0.05891       -0.39457
B         -5.16862       -1.59532       -0.79449
B         -6.17460       -0.69637       -1.49186
B         -6.13663        0.79861       -1.50113
B          1.62012       -0.81491        0.67660
B          0.23330        0.01807        1.18491
B          0.32611        1.82133        1.15609
B          5.47514        1.51998       -1.20250
B          5.62145       -0.05497       -1.19323
B          5.36364       -1.57118       -1.19924
B          0.10328       -1.25832       -0.21546
