45
isomer_2396.log	Energy: -113455.9986617
B         -2.87118        0.94008        0.34881
B         -2.84902        2.63159       -0.63933
B         -1.56603        3.46937       -0.77606
B         -0.12662        3.04196        0.05024
B         -1.32772        0.36104        0.60628
B          1.64136        0.81929        0.75726
B          1.23245        3.94979       -0.59171
B         -4.43556        0.92890        0.81609
B          1.46204        2.42231        0.16828
B         -4.17989        2.03577       -0.30486
B         -0.20870        4.23561       -0.97973
B          2.73725        3.36775       -0.30594
B          2.97831        1.88646        0.44616
B          4.53558        1.17486        0.25961
B          0.48746       -2.24131        1.19139
B          1.92966       -2.46638        0.28539
B          3.24107       -1.50865        0.31177
B          4.53787       -0.48070       -0.06690
B          4.69839       -2.08179       -0.56720
B          3.31216       -2.94371       -0.49979
B          1.93843       -3.60022       -1.02160
B          0.49966       -3.34369       -0.04556
B          0.54098       -3.89066       -1.53544
B         -2.21863       -2.68567       -0.76739
B         -0.88882       -3.41970       -1.16234
B         -2.23316       -1.18614        0.46907
B         -3.56528       -2.05685       -0.40050
B         -3.84609       -0.62759        0.36489
B         -0.97244       -2.40096        0.17446
B         -1.47590        1.88006       -0.07494
B          3.21343        0.16562        0.76824
B         -0.87642       -1.15884        1.40141
B          4.22054        2.76005       -0.41258
B         -5.72441        1.43086       -0.14024
B         -5.53173       -0.19116        0.30038
B         -5.06309       -1.63907       -0.45534
B         -6.39484       -0.96377       -0.85551
B         -6.75803        0.45389       -0.65919
B          1.83649       -0.88694        1.25548
B          0.25116        0.15236        1.56414
B          0.06269        1.48404        0.62319
B          5.47093        1.96767       -0.76385
B          5.84473        0.46905       -0.71866
B          5.82696       -1.10114       -0.77700
B          0.61398       -1.15345        2.35914
