45
isomer_2397.log	Energy: -113385.8055359
B          2.57272       -1.66313        0.66766
B          2.60046       -3.21089       -0.62229
B          1.25492       -3.97999       -0.75415
B         -0.10804       -3.21077        0.09293
B          1.33803       -0.55599        1.28166
B         -1.63584       -0.78783        0.98827
B         -1.52342       -4.03477       -0.37892
B          3.85117       -0.78159        0.18209
B         -1.59493       -2.51318        0.57867
B          3.77278       -2.26471       -0.46218
B         -0.18510       -4.55656       -0.78969
B         -2.90671       -3.23798       -0.18827
B         -3.04035       -1.72019        0.35669
B         -4.40720       -0.85924       -0.22411
B         -0.37310        1.87378        0.95366
B         -1.80619        2.53936        0.46539
B         -3.16023        1.67499        0.19775
B         -4.59374        0.76764        0.01217
B         -4.43660        2.38848       -0.68883
B         -3.13630        3.26485       -0.34125
B         -1.78845        4.12884       -0.42854
B         -0.38390        3.41227        0.32665
B         -0.39285        4.71079       -0.59738
B          2.42812        3.42801       -0.12221
B          1.05344        4.17460       -0.28871
B          2.48508        1.74684        0.61148
B          3.72076        2.58606       -0.22703
B          3.84087        0.99028        0.21784
B          1.10994        2.61516        0.47833
B          1.51160       -3.01203        0.58021
B         -3.22136       -0.02928        0.62712
B          1.14153        1.01656        1.10364
B         -4.31039       -2.51691       -0.60295
B          5.13663       -1.43938       -0.76853
B          5.15792        0.16297       -0.25177
B          5.07369        1.79768       -0.65315
B          6.16259        0.93513       -1.32015
B          6.21099       -0.53836       -1.35062
B         -1.72013        0.85854        0.72953
B          1.36930       -2.00820        1.78529
B         -0.15535       -1.78611        1.11552
B         -5.47647       -1.68479       -1.07771
B         -5.69057       -0.13694       -1.11242
B         -5.48706        1.38922       -1.16230
B         -0.25823        0.06676        1.06062
