45
isomer_2398.log	Energy: -112089.5545402
B         -2.58449       -1.51518       -0.49574
B         -2.63074       -3.15719       -0.13620
B         -1.25266       -4.03553        0.10090
B          0.23245       -3.24431       -0.43392
B         -1.09573       -0.66749       -0.78541
B          1.77681       -0.78946       -0.86151
B          1.59388       -4.08310        0.24965
B         -4.01424       -0.59506       -0.41610
B          1.64341       -2.39720       -0.32133
B         -4.01137       -2.29364        0.01962
B          0.14771       -4.70168        0.37597
B          3.05248       -3.28339        0.27947
B          3.13376       -1.65676       -0.26651
B          4.61723       -0.89813        0.24523
B          0.42663        1.81271       -0.90073
B          1.82868        2.45462       -0.26123
B          3.25818        1.60156       -0.22615
B          4.67900        0.71961        0.26526
B          4.57005        2.27940        0.52918
B          3.30064        3.21566        0.35996
B          1.90729        4.12475        0.35130
B          0.48651        3.40936       -0.35152
B          0.51238        4.84847        0.49425
B         -2.37526        3.53347       -0.05334
B         -0.93445        4.29805        0.20412
B         -2.45400        1.90211       -0.45342
B         -3.81786        2.77411        0.08239
B         -3.94982        1.09199       -0.39521
B         -0.99286        2.67309       -0.60110
B         -1.18625       -2.39144       -0.66382
B          3.27693       -0.12585       -0.64389
B         -1.03394        0.95080       -0.76537
B          4.38941       -2.45112        0.47060
B         -5.30587       -1.44513        0.52917
B         -5.23987        0.18748        0.31547
B         -5.17377        2.01442        0.57202
B         -6.37695        1.09753        1.15849
B         -6.43619       -0.45395        1.13928
B          1.83962        0.85524       -0.84114
B         -2.20760       -3.06077        1.15251
B          0.29499       -1.63464       -0.94342
B          5.92322       -1.80090        0.69858
B          6.18325       -0.09728        0.78544
B          6.05160        1.63879        0.81178
B         -2.05219       -0.70401       -0.37357
