45
isomer_2399.log	Energy: -113390.9998529
B         -1.97237       -1.40762        0.02113
B         -2.55775       -3.09802       -0.34101
B         -1.47965       -4.26358       -0.36350
B          0.07903       -3.33191       -1.00067
B         -0.84937       -0.54195       -1.12822
B          1.10535       -0.65081       -0.81988
B          1.42141       -4.04307        0.01727
B         -3.23290       -0.54727        0.70022
B          1.44869       -2.35464       -0.56172
B         -3.58890       -2.13915        0.44925
B         -0.06324       -4.57760        0.08088
B          2.70365       -3.23793        0.13451
B          2.86813       -1.59103       -0.32822
B          4.19090       -0.84620        0.32794
B          0.35765        1.77829       -1.14656
B          1.72496        2.54328       -0.48118
B          3.12330        1.71322       -0.25092
B          4.42095        0.81158        0.31978
B          4.25361        2.43243        0.87958
B          3.03458        3.30681        0.27041
B          1.72062        4.18083        0.14171
B          0.33230        3.48596       -0.69284
B          0.31852        4.85222        0.12850
B         -2.44607        3.52813       -0.20078
B         -1.06210        4.31436       -0.22971
B         -2.46865        1.87917       -0.70387
B         -3.62515        2.67869        0.22999
B         -3.44245        1.01249        0.21596
B         -1.08527        2.64584       -1.03920
B         -1.35201       -2.30914       -1.31657
B          3.10762        0.03969       -0.57317
B         -1.16622        1.03313       -1.24428
B          4.01768       -2.45926        0.74988
B         -4.66157       -1.43209        1.31315
B         -4.75667        0.07920        0.57627
B         -4.96809        1.77399        0.64059
B         -6.07898        0.91840        1.16965
B         -5.85327       -0.47625        1.65833
B          1.67903        0.88650       -0.87480
B         -0.94583       -2.92399        0.45815
B          0.21200       -1.81476       -1.71361
B          5.10944       -1.63760        1.38359
B          5.35877       -0.10347        1.49337
B          5.20973        1.43227        1.55642
B         -0.14142       -1.53913        0.09418
