45
isomer_0024.log	Energy: -113393.7294419
B         -2.65804       -1.37941       -0.46720
B         -2.58377       -3.11758        0.04919
B         -1.47017       -4.14337        0.56720
B          0.06803       -3.28262       -0.57853
B         -1.29107       -0.60418       -1.05459
B          1.69220       -0.81570       -0.78252
B          1.40047       -4.08267        0.16432
B         -3.98129       -0.59251       -0.18898
B          1.58688       -2.49599       -0.44022
B         -3.89263       -2.14819        0.34997
B         -0.06137       -4.63262        0.32521
B          2.81786       -3.33322        0.30218
B          3.04896       -1.75099       -0.19610
B          4.51110       -0.97620        0.13778
B          0.42519        1.83626       -1.15479
B          1.89496        2.56134       -0.45231
B          3.23113        1.66311       -0.20902
B          4.56531        0.71262        0.26910
B          4.50466        2.35503        0.78316
B          3.20111        3.24938        0.31697
B          1.85187        4.11590        0.26374
B          0.45196        3.44951       -0.57717
B          0.44287        4.74443        0.34741
B         -2.37568        3.48513       -0.12640
B         -0.97337        4.23209        0.01168
B         -2.48741        1.85455       -0.58343
B         -3.74827        2.68379        0.19445
B         -3.90197        1.07809       -0.14975
B         -1.09891        2.70234       -0.85086
B         -1.35132       -2.27389       -0.97213
B          3.26877       -0.04130       -0.55851
B         -1.16233        1.00213       -1.13028
B          4.19757       -2.56773        0.77028
B         -5.18017       -1.39729        0.87358
B         -5.24417        0.29370        0.48723
B         -4.95521        1.92952        0.89249
B         -5.98472        1.01370        1.70438
B         -6.17060       -0.46286        1.60924
B          1.84453        0.90737       -0.92365
B         -1.43238       -3.87191       -1.01108
B          0.22445       -1.54860       -0.92024
B          5.30609       -1.69178        1.33158
B          5.62763       -0.18473        1.30058
B          5.54910        1.38676        1.30864
B          0.29213        0.13856       -1.03260
