45
isomer_0240.log	Energy: -113523.1186765
B         -1.50123       -1.97325        0.04022
B         -1.30786       -3.59427        0.19150
B          0.14386       -4.23323        0.00235
B          1.25654       -3.42004       -1.01237
B         -1.92876       -0.36390       -0.39230
B          1.75459       -0.62043       -0.99362
B          2.84170       -3.76474       -0.29205
B         -3.10989       -1.48700        0.34551
B          2.49072       -2.24013       -1.03745
B         -2.72570       -3.04498        0.71832
B          1.61407       -4.61948       -0.01585
B          3.92751       -2.58955       -0.24999
B          3.32639       -1.06158       -0.29813
B          4.24782        0.08842        0.51218
B         -0.09559        1.82702       -1.56309
B          0.43904        2.37740        0.10751
B          2.05403        2.02149        0.33859
B          3.68391        1.66229        0.57181
B          3.02210        3.01269        1.36793
B          1.53711        3.46225        0.84827
B          0.26019        4.19363        0.25890
B         -0.46103        3.37817       -1.07798
B         -0.98736        4.73508       -0.38226
B         -3.21644        2.75799       -0.70125
B         -2.15365        3.87410       -0.85821
B         -2.42185        1.28386       -0.23048
B         -4.16213        1.68414       -0.00235
B         -3.60010        0.14407        0.16242
B         -1.78111        2.24952       -1.46617
B         -0.27004       -2.65739       -0.74643
B          2.71686        0.52317       -0.21564
B         -1.23658        0.60263       -1.59622
B          4.92882       -1.45850        0.40226
B         -4.16813       -2.57060        1.18553
B         -4.47656       -0.88554        1.13785
B         -5.13808        0.66175        0.74248
B         -6.02337       -0.52195        1.33205
B         -5.60048       -1.95363        1.51927
B          0.91795        0.76508       -0.58710
B         -0.70405        1.03652        0.04102
B          0.88212       -1.84806       -1.56429
B          5.67338       -0.30062        1.07166
B          5.19970        1.16527        1.44298
B          4.39352        2.44674        1.76143
B         -0.24192       -0.74441       -0.81886
