45
isomer_2400.log	Energy: -112293.7640970
B          2.56208        1.71968       -0.47555
B          2.54651        3.35567       -0.08712
B          1.13650        4.17643        0.16789
B         -0.31863        3.33860       -0.37825
B          1.10605        0.82098       -0.77756
B         -1.76923        0.83447       -0.84647
B         -1.70941        4.11262        0.32242
B          4.02609        0.85358       -0.41468
B         -1.69597        2.43637       -0.27818
B          3.95945        2.54287        0.05101
B         -0.28760        4.78366        0.45713
B         -3.13636        3.25738        0.34065
B         -3.15684        1.63869       -0.23386
B         -4.60904        0.81507        0.26697
B         -0.32084       -1.71314       -0.93405
B         -1.69582       -2.41929       -0.30355
B         -3.15674       -1.62221       -0.25090
B         -4.60899       -0.80395        0.25851
B         -4.43996       -2.36285        0.49462
B         -3.13617       -3.24681        0.30666
B         -1.70917       -4.10173        0.27950
B         -0.31843       -3.32034       -0.41304
B         -0.28731       -4.77405        0.40720
B          2.54671       -3.34028       -0.12210
B          1.13675       -4.16375        0.12431
B          2.56218       -1.70032       -0.49342
B          3.95961       -2.52889        0.02451
B          4.02614       -0.83481       -0.42350
B          1.13117       -2.52383       -0.65215
B          1.13101        2.54472       -0.62567
B         -3.24240        0.11031       -0.63801
B          1.10610       -0.79860       -0.78602
B         -4.44010        2.37142        0.51936
B          5.28662        1.73558        0.54322
B          5.28245        0.10566        0.30080
B          5.28672       -1.72670        0.52513
B          6.45545       -0.77499        1.12562
B          6.45541        0.77772        1.13373
B         -1.76918       -0.81154       -0.85508
B          2.20795       -0.64047        1.35408
B         -0.32094        1.73693       -0.91602
B         -5.94742        1.65918        0.73849
B         -6.14205       -0.05439        0.79567
B         -5.94419       -1.78436        0.79109
B          0.25189        0.31967       -0.42337
