45
isomer_2402.log	Energy: -113465.9302296
B          2.39400        1.77344       -0.36857
B          2.25920        3.41736        0.33054
B          0.79951        4.08711        0.40321
B         -0.53097        3.33522       -0.40340
B          1.09356        0.89427       -0.71928
B         -1.85339        0.79743       -0.99983
B         -2.04878        3.98185        0.25310
B          3.83442        1.13278       -0.05780
B         -1.98715        2.42013       -0.49870
B          3.60088        2.69740        0.42394
B         -0.66389        4.58573        0.56376
B         -3.37032        3.11265        0.12141
B         -3.35636        1.52013       -0.54236
B         -4.69358        0.59631       -0.05632
B         -0.10924       -1.75108       -1.10785
B         -1.55316       -2.52371       -0.40792
B         -3.04311       -1.82095       -0.39644
B         -4.48628       -1.10337        0.05065
B         -4.16033       -2.57778        0.81238
B         -2.70608       -3.26753        0.48921
B         -1.22008       -3.74815        0.70170
B          0.03870       -3.28810       -0.47113
B          0.31175       -3.90532        1.03927
B          2.86096       -3.13752       -0.23159
B          1.61652       -3.91586        0.26304
B          2.62521       -1.48830       -0.42258
B          4.15733       -2.16989       -0.04542
B          3.95897       -0.56234       -0.09802
B          1.45812       -2.59170       -1.19486
B          0.95306        2.53645       -0.34655
B         -3.33566       -0.17886       -0.80173
B          1.19330       -0.78678       -0.48614
B         -4.67624        2.23716        0.45713
B          5.12078        1.97458        0.64420
B          5.28315        0.40161        0.05691
B          5.44180       -1.29388        0.36696
B          6.49317       -0.30948        0.92543
B          6.37683        1.17820        1.01959
B         -1.67311       -0.92160       -1.01231
B          1.20058       -2.24283        0.52070
B         -0.45891        1.71731       -0.94688
B         -5.73736        1.26361        0.95952
B         -5.74092       -0.27577        1.05741
B         -5.35628       -1.77638        1.23330
B         -0.31061       -0.02352       -1.07765
