45
isomer_2403.log	Energy: -112600.4585035
B          2.67625        1.81409       -0.39855
B          2.56932        3.46414       -0.04787
B          1.12033        4.27147        0.15305
B         -0.31300        3.43615       -0.39644
B          1.32201        0.81570       -1.00264
B         -1.83841        0.82605       -0.85395
B         -1.72183        4.16992        0.26466
B          4.09212        0.90158       -0.33275
B         -1.72845        2.50364       -0.30433
B          3.98884        2.58993        0.11250
B         -0.31403        4.80932        0.39784
B         -3.13403        3.31366        0.29844
B         -3.19389        1.68496       -0.24013
B         -4.64243        0.84691        0.28128
B         -0.54343       -1.81073       -0.94531
B         -1.83806       -2.48070       -0.24365
B         -3.23844       -1.66262       -0.18041
B         -4.64120       -0.80637        0.31340
B         -4.52372       -2.38322        0.61663
B         -3.17445       -3.28374        0.40574
B         -1.71994       -4.12472        0.37668
B         -0.27765       -3.47321       -0.35357
B         -0.22056       -4.78303        0.47473
B          2.72350       -3.48245       -0.00668
B          1.30969       -4.31778        0.23073
B          2.76308       -1.76239       -0.43245
B          4.10461       -2.52955        0.14085
B          4.13220       -0.87113       -0.32030
B          1.37169       -2.78508       -0.56780
B          1.20908        2.67371       -0.58711
B         -3.31148        0.07858       -0.61117
B          1.30694       -0.70038       -0.78227
B         -4.50310        2.45064        0.52766
B          5.26900        1.79720        0.63977
B          5.29730        0.13226        0.41704
B          5.32064       -1.65472        0.66006
B          6.39319       -0.65843        1.26459
B          6.40336        0.83941        1.26522
B         -1.87861       -0.88220       -0.83390
B          0.99569        1.05111        0.22671
B         -0.33291        1.80754       -0.91845
B         -5.88914        1.62793        0.74148
B         -6.06928        0.02010        0.82506
B         -5.90223       -1.62976        0.86234
B          0.58144       -1.84379       -1.13669
