45
isomer_2404.log	Energy: -113549.1891410
B          2.82779        0.96721       -0.50020
B          2.81566        2.70838        0.03560
B          1.64212        3.70849        0.05128
B          0.12762        3.18335       -0.57717
B          1.28250        0.50803       -1.24884
B         -1.71307        0.94932       -1.12652
B         -1.10360        4.16128        0.15855
B          4.51079        0.62943       -0.60430
B         -1.41142        2.54883       -0.53594
B          4.20125        2.01649        0.16591
B          0.35619        4.55697        0.22847
B         -2.57760        3.48160        0.23739
B         -2.93110        1.98163       -0.33885
B         -4.26411        1.16704        0.37572
B         -0.61362       -1.79301       -1.44427
B         -1.62705       -2.22537       -0.09638
B         -3.13344       -1.46536       -0.06296
B         -4.51700       -0.47387        0.22691
B         -4.27754       -2.10224        0.98970
B         -3.00932       -2.99030        0.52836
B         -1.63039       -3.89698        0.31279
B         -0.52495       -3.41524       -1.19208
B         -0.31531       -4.59398        0.03412
B          1.53323       -2.47823        0.46176
B          1.01298       -3.89889       -0.36115
B          2.06117       -0.96700       -0.47858
B          2.80686       -1.68249        0.92603
B          3.64916       -0.67358       -0.15829
B          1.03943       -2.47094       -1.19641
B          1.52510        2.11441       -0.75504
B         -3.27235        0.24888       -0.63632
B          0.95436       -0.96084       -1.76685
B         -3.96052        2.81513        0.79796
B          5.48479        1.29422        0.69717
B          5.20205       -0.40210        0.50877
B          4.19257       -1.43384        1.48691
B          5.58649       -0.98987        1.98622
B          6.23098        0.26879        1.60284
B         -1.84269       -0.69762       -0.95004
B         -0.12894       -2.77572        0.45372
B         -0.09817        1.65513       -1.14739
B         -5.08544        2.02641        1.43748
B         -5.35564        0.49426        1.50699
B         -5.22485       -1.06355        1.53715
B         -0.42499       -0.03424       -1.57019
