45
isomer_2406.log	Energy: -113401.7980898
B          2.52101       -1.71223        0.51365
B          2.67517       -3.36045       -0.59160
B          1.34138       -4.17147       -0.57030
B          0.05425       -3.23386        0.38330
B          1.39782       -0.56337        1.19571
B         -1.62050       -0.80015        0.96459
B         -1.40789       -4.11881       -0.10451
B          3.66948       -0.71394       -0.07686
B         -1.51343       -2.52923        0.64871
B          3.74326       -2.24489       -0.56873
B         -0.06005       -4.67146       -0.41877
B         -2.78626       -3.31248       -0.13624
B         -2.97208       -1.77076        0.33412
B         -4.33407       -0.94625       -0.28062
B         -0.42621        1.91151        1.03693
B         -1.83533        2.55170        0.44363
B         -3.17525        1.66903        0.14798
B         -4.53559        0.69836       -0.16050
B         -4.43179        2.34295       -0.79132
B         -3.17583        3.27107       -0.33170
B         -1.85924        4.19118       -0.31407
B         -0.45824        3.48229        0.49368
B         -0.47006        4.83169       -0.38578
B          2.34033        3.55372        0.02345
B          0.96030        4.29702       -0.08452
B          2.38248        1.83579        0.57173
B          3.62536        2.72987       -0.19513
B          3.68573        1.06795        0.09667
B          1.05097        2.73399        0.78594
B          1.75071       -3.30273        0.71835
B         -3.19317       -0.06492        0.56310
B          1.11431        1.03964        1.07507
B         -4.15494       -2.61062       -0.66745
B          5.03395       -1.35326       -0.96822
B          4.98475        0.24552       -0.41909
B          4.96566        1.92148       -0.68469
B          6.08080        1.07077       -1.33069
B          6.12063       -0.41740       -1.44923
B         -1.72676        0.85777        0.70691
B          1.28960       -2.09923        1.61399
B         -0.17117       -1.70528        1.12434
B         -5.29488       -1.78333       -1.24810
B         -5.54610       -0.22769       -1.30435
B         -5.40812        1.32499       -1.33844
B         -0.23098        0.08556        0.97905
