45
isomer_2407.log	Energy: -113685.7237400
B         -2.11701       -2.02375       -0.61886
B         -1.45406       -2.86008        0.96498
B         -0.03289       -3.65542        0.89425
B          1.12699       -3.29972       -0.33954
B         -0.75407       -1.46257       -1.54253
B          1.85571       -0.70474       -0.81176
B          2.71054       -3.54145        0.35131
B         -3.45708       -1.07399       -0.35980
B          2.40839       -2.30528       -0.89336
B         -2.43640       -1.64306        1.14053
B          1.44809       -4.07714        1.00619
B          3.95116       -2.63811       -0.10830
B          3.48725       -1.10980       -0.42551
B          4.57307        0.16051       -0.02638
B         -0.24889        1.26226       -0.71628
B          0.88606        2.51021       -0.24788
B          2.50043        2.15993       -0.17170
B          4.10901        1.81091       -0.09579
B          3.50891        3.29010        0.59648
B          1.91653        3.70019        0.24728
B          0.36594        4.08164        0.18528
B         -0.78574        2.78803       -0.25975
B         -1.19618        4.25725        0.17702
B         -3.34797        2.00057       -0.00357
B         -2.35168        3.28692       -0.03565
B         -3.15400        0.57935       -0.94293
B         -4.38354        0.83607        0.51086
B         -4.64180        0.00818       -1.18759
B         -1.91437        1.57782       -0.65934
B         -0.57027       -2.80811       -0.48526
B          3.05178        0.58325       -0.67992
B         -1.55978       -0.18600       -0.83827
B          4.98269       -1.49954        0.33335
B         -3.81151       -0.85954        1.43757
B         -5.05360       -0.85655        0.24863
B         -5.94139        0.47860       -0.48194
B         -6.14137        0.45452        0.97171
B         -5.09126       -0.15317        1.86569
B          1.34713        0.89440       -0.62962
B         -0.87226       -1.26358        0.51689
B          0.82090       -1.93758       -1.41538
B          5.76998       -0.27606        0.89991
B          5.47945        1.24735        0.94737
B          4.80614        2.66650        1.06461
B          0.21096       -0.39933       -0.38300
