45
isomer_2412.log	Energy: -113472.5268300
B          2.59619       -1.70534        0.65051
B          2.51844       -3.08631       -0.44009
B          1.14585       -3.78834       -0.61658
B         -0.10822       -3.33489        0.52275
B          1.29179       -0.70604        0.63958
B         -1.63970       -0.75204        0.66089
B         -1.63891       -4.09379       -0.24157
B          3.99053       -0.82825        0.35931
B         -1.62396       -2.46903        0.23641
B          3.89614       -2.29907       -0.32603
B         -0.28141       -4.44118       -0.70732
B         -3.02622       -3.29012       -0.07698
B         -3.11062       -1.69419        0.38098
B         -4.60461       -0.85674        0.25213
B         -0.35160        1.86136        0.99570
B         -1.76677        2.54896        0.38568
B         -3.15719        1.72765        0.20588
B         -4.54582        0.78773       -0.11448
B         -4.46961        2.42949       -0.70141
B         -3.09544        3.26558       -0.40389
B         -1.71531        4.12404       -0.48988
B         -0.33209        3.38837        0.31606
B         -0.30950        4.66861       -0.65504
B          2.47940        3.28477       -0.11696
B          1.10327        4.07167       -0.34790
B          2.52899        1.64561        0.60846
B          3.82232        2.48055       -0.11211
B          3.96991        0.93269        0.38855
B          1.14911        2.57914        0.54300
B          1.31553       -2.70792        1.02623
B         -3.25164        0.03632        0.68357
B          1.15074        0.90610        1.05015
B         -4.43253       -2.48374       -0.35481
B          5.27586       -1.51687       -0.56438
B          5.29882        0.08917       -0.04052
B          5.23267        1.72229       -0.46368
B          6.33871        0.88256       -1.08575
B          6.35443       -0.58729       -1.14583
B         -1.75735        0.88782        0.87204
B          1.14873       -1.98918       -0.57281
B         -0.16969       -1.59067        0.43802
B         -5.54487       -1.57995       -0.84628
B         -5.80006       -0.05722       -0.90977
B         -5.63060        1.48846       -1.04165
B         -0.24371        0.04922        1.15983
