45
isomer_2413.log	Energy: -113327.9676581
B         -2.52341        1.73328        0.65348
B         -2.44541        3.41176       -0.13295
B         -1.07589        4.13758       -0.27972
B          0.37419        3.39454        0.29395
B         -1.09101        1.01516        1.06010
B          1.77356        0.91651        0.92146
B          1.75569        4.13677       -0.33067
B         -3.91661        1.04837        0.39951
B          1.81922        2.55590        0.55226
B         -3.73919        2.61696       -0.15643
B          0.35806        4.73558       -0.53031
B          3.14025        3.29366       -0.26588
B          3.26344        1.78459        0.37525
B          4.65782        0.84731        0.08422
B          0.28051       -1.48843        0.83636
B          1.72089       -2.39816        0.61192
B          3.05231       -1.60001        0.20611
B          4.43483       -0.75344       -0.28905
B          4.34983       -2.43627       -0.61748
B          2.96303       -3.22185       -0.17605
B          1.57577       -4.01974       -0.12409
B          0.11203       -3.10950        0.31679
B          0.23454       -4.55878       -0.49065
B         -2.43841       -2.98850       -0.72098
B         -1.17640       -3.94579       -0.70967
B         -2.48063       -1.60521        0.52521
B         -3.77214       -2.14222       -0.52773
B         -3.86084       -0.68862        0.19806
B         -1.62923       -3.35336        0.79323
B         -1.09436        2.52585        0.43600
B          3.26553        0.07477        0.61700
B         -1.16612       -0.57042        1.03214
B          4.47113        2.45993       -0.59870
B         -5.16647        1.86131       -0.48682
B         -5.22284        0.21588       -0.12478
B         -5.12240       -1.36125       -0.76431
B         -6.19398       -0.39842       -1.32691
B         -6.26511        1.05776       -1.14235
B          1.75188       -0.70510        0.93520
B         -1.15341       -2.12519        1.61079
B          0.36404        1.75717        0.90992
B          5.53793        1.46354       -1.12067
B          5.77886       -0.03622       -1.08786
B          5.52790       -1.60207       -1.08519
B         -1.02940       -1.93567       -0.27970
