45
isomer_2414.log	Energy: -112446.9438955
B          2.60866       -1.58492        0.38534
B          2.61676       -3.21592       -0.02378
B          1.21849       -4.05562       -0.28173
B         -0.24665       -3.24790        0.28271
B          1.14033       -0.71328        0.70647
B         -1.73396       -0.77317        0.79043
B         -1.62889       -4.03494       -0.42036
B          4.05847       -0.69505        0.32775
B         -1.63857       -2.36641        0.20143
B          4.01593       -2.37917       -0.15903
B         -0.19743       -4.68162       -0.57113
B         -3.06922       -3.20225       -0.42016
B         -3.11206       -1.59147        0.17500
B         -4.57980       -0.78468       -0.30762
B         -0.32546        1.79574        0.90273
B         -1.71486        2.48794        0.28856
B         -3.16329        1.66855        0.23351
B         -4.60524        0.83390       -0.27857
B         -4.46210        2.39813       -0.49573
B         -3.17140        3.30019       -0.30344
B         -1.75793        4.17718       -0.27296
B         -0.35126        3.40923        0.40221
B         -0.34758        4.87350       -0.39963
B          2.51157        3.47822        0.09638
B          1.08746        4.28230       -0.13207
B          2.55494        1.83415        0.44671
B          3.93625        2.69122       -0.06802
B          4.03195        0.99289        0.35804
B          1.11201        2.63282        0.62348
B          1.19163       -2.43435        0.53253
B         -3.21949       -0.06986        0.59899
B          1.11488        0.90585        0.73553
B         -4.38773       -2.33486       -0.58068
B          5.32747       -1.54481       -0.64796
B          5.29894        0.08166       -0.38480
B          5.27308        1.91655       -0.58583
B          6.45336        0.99112       -1.20455
B          6.47775       -0.56116       -1.23241
B         -1.75982        0.87239        0.81997
B          1.50002       -1.36408       -0.39076
B         -0.27126       -1.65340        0.84082
B         -5.90728       -1.64386       -0.78275
B         -6.12921        0.06699       -0.81709
B         -5.95864        1.79969       -0.79155
B          0.20919       -2.55744        1.80401
