45
isomer_2415.log	Energy: -113675.8837834
B         -2.50807        1.76039        0.48851
B         -2.42594        3.33616       -0.03850
B         -1.04590        4.15785       -0.12111
B          0.35251        3.38438        0.51513
B         -1.12936        0.84925        1.04248
B          1.78876        0.83052        0.91450
B          1.74981        4.14417       -0.24517
B         -3.95547        0.91185        0.21490
B          1.80289        2.53224        0.48874
B         -3.80810        2.53843       -0.29278
B          0.34365        4.74629       -0.35017
B          3.09314        3.27967       -0.26665
B          3.17395        1.67982        0.25989
B          4.53080        0.79542       -0.24136
B          0.31160       -1.83017        1.08623
B          1.72226       -2.55161        0.42891
B          3.12734       -1.73432        0.21904
B          4.54710       -0.89617       -0.14276
B          4.32404       -2.50099       -0.77093
B          3.00661       -3.34213       -0.27870
B          1.63974       -4.17076       -0.25738
B          0.26752       -3.40342        0.54126
B          0.21727       -4.74827       -0.35121
B         -2.51514       -3.30365       -0.03639
B         -1.15908       -4.14950       -0.10682
B         -2.56388       -1.72977        0.53192
B         -3.87004       -2.48418       -0.27608
B         -3.98434       -0.84435        0.22480
B         -1.18730       -2.57772        0.78950
B         -1.11826        2.59062        0.76606
B          3.29306       -0.01644        0.60893
B         -2.60941        0.01662        0.74602
B          4.40775        2.44332       -0.74990
B         -5.05836        1.74019       -0.86650
B         -5.19445        0.04597       -0.52420
B         -5.10425       -1.65024       -0.84584
B         -6.10387       -0.70474       -1.60709
B         -6.08242        0.81579       -1.61484
B          1.71604       -0.84324        0.78266
B         -1.17095       -0.85120        1.06906
B          0.37057        1.82448        1.11776
B          5.47474        1.51743       -1.30131
B          5.61999       -0.03474       -1.30478
B          5.37060       -1.57065       -1.33830
B          0.34282       -0.00263        1.09248
