45
isomer_2416.log	Energy: -111836.9813671
B         -2.56948       -1.58162       -0.54710
B         -2.59399       -3.22545       -0.19381
B         -1.20466       -4.08490        0.04686
B          0.27157       -3.27054       -0.47774
B         -1.09160       -0.71167       -0.82632
B          1.78273       -0.79230       -0.88872
B          1.64151       -4.09235        0.20945
B         -4.01262       -0.68232       -0.47113
B          1.66971       -2.40379       -0.35509
B         -3.98757       -2.38230       -0.04163
B          0.20374       -4.73199        0.32638
B          3.08836       -3.27199        0.24939
B          3.14903       -1.64234       -0.29022
B          4.61898       -0.86450        0.23159
B          0.39566        1.79044       -0.92505
B          1.78525        2.44992       -0.27631
B          3.22662        1.61726       -0.23731
B          4.65751        0.75386        0.25786
B          4.52496        2.31095        0.52696
B          3.24313        3.22959        0.35492
B          1.83698        4.11871        0.34272
B          0.43002        3.38573       -0.36970
B          0.43117        4.82189        0.48145
B         -2.43465        3.46782       -0.08518
B         -1.00620        4.25194        0.18217
B         -2.48810        1.83700       -0.49162
B         -3.86688        2.68742        0.04066
B         -3.97244        1.00539       -0.44374
B         -1.03743        2.62933       -0.62926
B         -1.15804       -2.43718       -0.71150
B          3.27212       -0.10814       -0.66128
B         -1.05306        0.90725       -0.80005
B          4.41231       -2.42143        0.45015
B         -5.29654       -1.55428        0.46465
B         -5.25287        0.07989        0.25725
B         -5.21415        1.90662        0.52082
B         -6.40694        0.97045        1.09799
B         -6.44389       -0.58164        1.07280
B          1.82190        0.85304       -0.86201
B         -1.88655       -1.80783        2.36782
B          0.31357       -1.65826       -0.98103
B          5.93553       -1.75021        0.68807
B          6.17073       -0.04339        0.78244
B          6.01414        1.69051        0.81450
B         -1.91960       -0.66461       -0.20111
