45
isomer_2417.log	Energy: -112727.3583472
B         -2.60773        1.71788        0.43545
B         -2.59541        3.35391        0.04703
B         -1.18680        4.17881       -0.20228
B          0.26856        3.34528        0.34980
B         -1.15030        0.82348        0.74340
B          1.72462        0.84545        0.82400
B          1.65989        4.12338       -0.34524
B         -4.06892        0.84747        0.36867
B          1.64895        2.44712        0.25536
B         -4.00538        2.53694       -0.09680
B          0.23667        4.79023       -0.48576
B          3.08942        3.27236       -0.35765
B          3.11233        1.65375        0.21700
B          4.56898        0.83439       -0.27790
B          0.28340       -1.70642        0.90578
B          1.66301       -2.40853        0.28090
B          3.12178       -1.60714        0.23416
B          4.57367       -0.78462       -0.26938
B          4.41019       -2.34401       -0.50613
B          3.10826       -3.23181       -0.32343
B          1.68368       -4.09093       -0.30203
B          0.28784       -3.31363        0.38482
B          0.26435       -4.76745       -0.43548
B         -2.57602       -3.34202        0.08225
B         -1.16265       -4.16133       -0.15840
B         -2.59783       -1.70210        0.45344
B         -3.99069       -2.53479       -0.07012
B         -4.06403       -0.84091        0.37755
B         -1.16505       -2.52138        0.61802
B         -1.17973        2.54713        0.59135
B          3.20076        0.12563        0.62154
B         -1.14561       -0.79608        0.75192
B          4.39648        2.39024       -0.53103
B         -5.32815        1.72573       -0.59437
B         -5.32016        0.09584       -0.35188
B         -5.31812       -1.73654       -0.57616
B         -6.48721       -0.78829       -1.18142
B         -6.49170        0.76441       -1.18959
B          1.72939       -0.80055        0.83266
B         -0.78771       -0.72923       -1.10944
B          0.27341        1.74364        0.88763
B          5.90677        1.68244       -0.74401
B          6.10668       -0.03055       -0.80034
B          5.91390       -1.76110       -0.79649
B         -0.00380        0.15391        1.44259
