45
isomer_2419.log	Energy: -113675.8855568
B          2.56257        1.73113       -0.52953
B          2.51206        3.30375        0.03790
B          1.15488        4.14916        0.10975
B         -0.27020        3.40268       -0.53873
B          1.16973        0.85047       -1.06813
B         -1.71917        0.84328       -0.79148
B         -1.64324        4.16923        0.25830
B          3.98378        0.84622       -0.22461
B         -1.72567        2.55074       -0.43169
B          3.86865        2.48548        0.27674
B         -0.22156        4.74801        0.35317
B         -3.00953        3.33938        0.27875
B         -3.13016        1.73280       -0.22218
B         -4.54688        0.89255        0.14674
B         -0.36809       -1.82534       -1.11679
B         -1.80143       -2.53305       -0.48830
B         -3.17303       -1.68094       -0.26049
B         -4.53259       -0.79945        0.23615
B         -4.40620       -2.44531        0.74942
B         -3.09089       -3.28115        0.26604
B         -1.74659       -4.14407        0.24693
B         -0.34963       -3.38443       -0.51408
B         -0.33981       -4.74514        0.35312
B          2.42891       -3.33381        0.04007
B          1.04919       -4.15674        0.12333
B          2.61029       -0.01560       -0.74729
B          3.81101       -2.53649        0.29182
B          3.95762       -0.90940       -0.21693
B          1.12034       -2.58945       -0.76519
B          1.18475        2.57758       -0.78818
B         -3.29410        0.01547       -0.60956
B          1.13078       -0.84845       -1.04247
B         -4.32745        2.49847        0.77090
B          5.10367        1.65293        0.84608
B          5.19596       -0.04324        0.52246
B          5.06155       -1.73753        0.86420
B          6.08404       -0.81266        1.61353
B          6.10363        0.70808        1.60677
B         -1.78497       -0.83057       -0.90975
B          2.51049       -1.75925       -0.48938
B         -0.31343        1.83080       -1.08813
B         -5.37460        1.56859        1.33849
B         -5.61987        0.03211        1.30515
B         -5.47189       -1.51971        1.30231
B         -0.34292        0.00289       -1.09524
