45
isomer_0242.log	Energy: -113382.4906312
B          2.50101        1.80822       -0.55735
B          2.40577        3.41836        0.01763
B          1.03687        4.21466        0.17843
B         -0.38925        3.47824       -0.52636
B          1.12703        1.03283       -1.11164
B         -1.82375        0.90943       -0.97990
B         -1.74440        4.13966        0.34260
B          3.91485        0.99209       -0.23187
B         -1.80986        2.59939       -0.49544
B          3.76569        2.56902        0.25480
B         -0.35127        4.75718        0.46462
B         -3.09914        3.24719        0.36571
B         -3.14736        1.69120       -0.17463
B         -4.51320        0.73228        0.28018
B         -0.30149       -1.60060       -1.12231
B         -1.68521       -2.45882       -0.52960
B         -3.11795       -1.70473       -0.29811
B         -4.54839       -0.94323        0.00504
B         -4.26261       -2.56896        0.65013
B         -2.89763       -3.35592        0.19888
B         -1.49169       -4.04912        0.19112
B         -0.15909       -3.19824       -0.55138
B          0.00636       -4.65173        0.23474
B          2.53307       -3.13888        0.03633
B          1.51158       -4.44336       -0.08662
B          2.67945       -1.41233       -0.64513
B          3.87467       -2.20045        0.27945
B          4.03974       -0.69556       -0.39066
B          1.23728       -2.12684       -0.52151
B          1.13262        2.71409       -0.76004
B         -3.27681        0.00245       -0.64134
B          1.23049       -0.53533       -1.02561
B         -4.38685        2.37297        0.83006
B          4.98508        1.77851        0.88071
B          5.25357        0.18003        0.37895
B          5.22524       -1.51236        0.69859
B          6.27383       -0.61111        1.39287
B          6.07936        0.85196        1.57387
B         -1.70437       -0.77599       -0.82695
B          0.94509       -3.22061        0.69685
B         -0.39394        1.93777       -1.19163
B         -5.46906        1.41309        1.34076
B         -5.59668       -0.13105        1.28415
B         -5.28658       -1.65079        1.25661
B         -0.30206        0.14539       -1.16501
