45
isomer_2420.log	Energy: -112767.1720058
B         -2.58183        1.73877        0.41262
B         -2.55869        3.37670        0.03800
B         -1.15335        4.19797       -0.19454
B          0.28877        3.36546        0.35226
B         -1.13620        0.84084        0.71931
B          1.72595        0.85751        0.81191
B          1.67689        4.14380       -0.32770
B         -4.03031        0.88462        0.32958
B          1.66400        2.47040        0.25655
B         -3.95564        2.56451       -0.11912
B          0.26128        4.79910       -0.46352
B          3.09958        3.28953       -0.34276
B          3.12060        1.67232        0.21330
B          4.57516        0.84688       -0.27985
B          0.28107       -1.67114        0.86472
B          1.65978       -2.38250        0.23690
B          3.11331       -1.59064        0.20373
B          4.56863       -0.76819       -0.28327
B          4.41047       -2.32875       -0.54273
B          3.08589       -3.20213       -0.36669
B          1.66211       -4.05393       -0.36150
B          0.27459       -3.27810        0.32421
B          0.24829       -4.70390       -0.50317
B         -2.57988       -3.28139        0.00760
B         -1.17384       -4.10278       -0.23145
B         -2.59666       -1.64276        0.39497
B         -3.97636       -2.46224       -0.14375
B         -4.03765       -0.79332        0.32040
B         -1.17684       -2.47670        0.55717
B         -1.16212        2.56437        0.58029
B          3.19986        0.13181        0.60376
B         -1.15432       -0.74230        0.70916
B          4.42269        2.41466       -0.52527
B         -5.26999        1.77792       -0.63136
B         -5.27235        0.14468       -0.40512
B         -5.27935       -1.66123       -0.64503
B         -6.42496       -0.70825       -1.24344
B         -6.42911        0.82973       -1.24094
B          1.72507       -0.77910        0.80580
B         -0.75818       -0.87581        2.17420
B          0.28609        1.75563        0.87649
B          5.89349        1.67067       -0.72921
B          6.07765       -0.01060       -0.79621
B          5.87735       -1.70398       -0.80640
B         -0.49091       -1.11813       -0.60991
