45
isomer_2421.log	Energy: -113456.0007707
B          2.23303       -1.18666        0.46984
B          2.21865       -2.68643       -0.76619
B          0.88902       -3.42007       -1.16177
B         -0.49920       -3.34463       -0.04442
B          0.87585       -1.15884        1.40176
B         -1.83705       -0.88806        1.25554
B         -1.93832       -3.60116       -1.02122
B          3.84577       -0.62755        0.36487
B         -1.92982       -2.46701        0.28484
B          3.56512       -2.05756       -0.39882
B         -0.54061       -3.89122       -1.53440
B         -3.31212       -2.94429       -0.50009
B         -3.24096       -1.50883        0.31156
B         -4.53662       -0.48054       -0.06864
B         -0.06261        1.48323        0.62167
B         -1.46233        2.42311        0.16914
B         -2.97801        1.88679        0.44657
B         -4.53564        1.17465        0.25893
B         -4.22101        2.76075       -0.41108
B         -2.73750        3.36846       -0.30510
B         -1.23185        3.95061       -0.59043
B          0.12644        3.04228        0.05044
B          0.20933        4.23671       -0.97853
B          2.84876        2.63038       -0.63956
B          1.56647        3.47004       -0.77493
B          2.87125        0.94078        0.34789
B          4.18031        2.03524       -0.30607
B          4.43506        0.92918        0.81652
B          1.47512        1.87976       -0.07614
B          0.97184       -2.40080        0.17464
B         -3.21176        0.16646        0.76610
B          1.32842        0.36068        0.60641
B         -4.69819       -2.08194       -0.56742
B          5.06257       -1.63853       -0.45610
B          5.53062       -0.19043        0.29937
B          5.72455        1.43139       -0.14018
B          6.75777        0.45403       -0.65950
B          6.39413       -0.96348       -0.85598
B         -1.64038        0.81927        0.75652
B         -0.25131        0.15220        1.56347
B         -0.48813       -2.24169        1.19185
B         -5.82646       -1.10098       -0.77756
B         -5.84435        0.46940       -0.71932
B         -5.47131        1.96867       -0.76330
B         -0.61451       -1.15337        2.35880
