45
isomer_2423.log	Energy: -112569.9559535
B          2.60089       -1.68946        0.37518
B          2.59470       -3.32488       -0.01594
B          1.18884       -4.15720       -0.25594
B         -0.26688       -3.33272        0.30861
B          1.14089       -0.80371        0.69573
B         -1.73317       -0.84183        0.79814
B         -1.65912       -4.11740       -0.37716
B          4.05666       -0.81081        0.29878
B         -1.65292       -2.44210        0.22620
B          3.99897       -2.49983       -0.16909
B         -0.23332       -4.77607       -0.52963
B         -3.09341       -3.27433       -0.37724
B         -3.12094       -1.65683        0.20033
B         -4.58585       -0.84479       -0.28208
B         -0.30558        1.71789        0.87333
B         -1.69378        2.41334        0.26015
B         -3.14838        1.60392        0.22313
B         -4.59947        0.77416       -0.27076
B         -4.44647        2.33483       -0.50608
B         -3.14814        3.22957       -0.33176
B         -1.72824        4.09657       -0.31973
B         -0.32292        3.32591        0.35517
B         -0.31375        4.78121       -0.46280
B          2.53836        3.37077        0.03088
B          1.11866        4.18259       -0.19762
B          2.57211        1.73038        0.39909
B          3.95629        2.57169       -0.13362
B          4.04246        0.87750        0.31059
B          1.13609        2.54139        0.57595
B          1.17874       -2.52692        0.54051
B         -3.21478       -0.12991        0.60814
B          1.12726        0.81579        0.70705
B         -4.40663       -2.39922       -0.53918
B          5.31339       -1.68044       -0.67531
B          5.29818       -0.05101       -0.42997
B          5.28425        1.78169       -0.65110
B          6.45395        0.84098       -1.26685
B          6.46701       -0.71165       -1.27771
B         -1.74702        0.80410        0.80965
B          1.45301       -0.67437        2.04221
B         -0.27654       -1.73203        0.84920
B         -5.92241       -1.69949       -0.73946
B         -6.13226        0.01245       -0.79134
B         -5.94909        1.74403       -0.78600
B          0.18038        0.62623       -0.10164
