45
isomer_2424.log	Energy: -111867.6202179
B          2.60892       -1.64582        0.40704
B          2.60394       -3.27908        0.00699
B          1.19898       -4.10897       -0.24632
B         -0.25962       -3.28642        0.31358
B          1.14762       -0.76067        0.72326
B         -1.72706       -0.79706        0.80748
B         -1.64814       -4.06625       -0.38515
B          4.06581       -0.76792        0.34453
B         -1.64445       -2.39426        0.22735
B          4.00977       -2.45433       -0.13287
B         -0.22191       -4.72521       -0.53228
B         -3.08175       -3.22206       -0.38962
B         -3.11168       -1.60771        0.19657
B         -4.57292       -0.79188       -0.29057
B         -0.29802        1.76107        0.90553
B         -1.68183        2.46095        0.28748
B         -3.13679        1.65289        0.23695
B         -4.58538        0.82698       -0.27052
B         -4.42973        2.38879       -0.49637
B         -3.13183        3.28153       -0.30908
B         -1.71138        4.14734       -0.28343
B         -0.31089        3.37191        0.39604
B         -0.29550        4.83162       -0.41393
B          2.55239        3.41626        0.08991
B          1.13477        4.23043       -0.14305
B          2.58259        1.77386        0.44939
B          3.97072        2.61696       -0.07007
B          4.05281        0.92031        0.36544
B          1.14610        2.58504        0.62167
B          1.18513       -2.48304        0.55891
B         -3.20691       -0.08295        0.61209
B          1.13515        0.85875        0.74332
B         -4.39327       -2.34504       -0.55500
B          5.32795       -1.63323       -0.62639
B          5.31244       -0.00516       -0.37229
B          5.30129        1.82874       -0.58352
B          6.47410        0.89046       -1.19705
B          6.48606       -0.66210       -1.21628
B         -1.73973        0.84879        0.82786
B          0.88704       -0.18383       -0.61070
B         -0.27146       -1.68869        0.86281
B         -5.90724       -1.64303       -0.76095
B         -6.11546        0.06933       -0.80482
B         -5.93101        1.80072       -0.78891
B          0.23039       -1.92802        1.49498
