45
isomer_2427.log	Energy: -112745.4135579
B         -2.58032        1.77887        0.41226
B         -2.55280        3.41875        0.05368
B         -1.13670        4.23560       -0.16618
B          0.30221        3.38821        0.37781
B         -1.14068        0.87756        0.71333
B          1.73597        0.86621        0.81681
B          1.70124        4.16592       -0.28956
B         -4.03399        0.92474        0.31670
B          1.67988        2.48472        0.27715
B         -3.95215        2.61343       -0.11262
B          0.28357        4.83286       -0.42478
B          3.12218        3.30679       -0.30785
B          3.13397        1.67925        0.23424
B          4.58890        0.85323       -0.26172
B          0.28063       -1.67200        0.84493
B          1.66031       -2.37843        0.20737
B          3.11867       -1.58940        0.18870
B          4.57831       -0.76845       -0.28371
B          4.41261       -2.32560       -0.55913
B          3.08723       -3.20101       -0.40171
B          1.65581       -4.04355       -0.41131
B          0.26824       -3.26725        0.27968
B          0.23070       -4.68767       -0.56420
B         -2.59289       -3.25697       -0.04800
B         -1.18579       -4.08135       -0.29208
B         -2.60565       -1.62028        0.36092
B         -3.98635       -2.43095       -0.18914
B         -4.04580       -0.75976        0.29161
B         -1.18360       -2.45932        0.51343
B         -1.15357        2.59545        0.59278
B          3.20777        0.13488        0.60986
B         -1.16198       -0.72015        0.68722
B          4.44005        2.42405       -0.49267
B         -5.27410        1.82361       -0.63393
B         -5.27931        0.19360       -0.42260
B         -5.29376       -1.61217       -0.68187
B         -6.43464       -0.65630       -1.27363
B         -6.43288        0.88892       -1.25481
B          1.72927       -0.77928        0.79424
B         -1.36522       -1.91260        2.10666
B          0.28808        1.77610        0.88545
B          5.92003        1.68359       -0.69935
B          6.09948       -0.00977       -0.78271
B          5.89732       -1.71453       -0.81475
B         -0.03024       -0.99955       -0.19653
