45
isomer_2428.log	Energy: -113436.5938168
B         -2.43159       -1.73603       -0.40763
B         -2.57620       -3.19934        0.87017
B         -1.22642       -4.00543        0.91836
B         -0.00730       -3.25205       -0.39626
B         -1.25276       -0.65762       -1.00573
B          1.70191       -0.77331       -1.02620
B          1.50721       -3.96094        0.23162
B         -3.73328       -0.74434       -0.06354
B          1.63290       -2.48063       -0.58980
B         -3.70609       -2.20127        0.63991
B          0.18722       -4.44588        0.72209
B          2.93005       -3.24789        0.08819
B          3.08714       -1.68665       -0.40976
B          4.46832       -0.85431        0.10647
B          0.35358        1.88961       -0.97283
B          1.77355        2.54441       -0.33659
B          3.16831        1.71948       -0.17878
B          4.59513        0.81011        0.03405
B          4.41648        2.41382        0.75944
B          3.09904        3.28851        0.39901
B          1.73456        4.15047        0.45075
B          0.34239        3.41734       -0.28969
B          0.33189        4.76024        0.56217
B         -2.45834        3.42598        0.07852
B         -1.09575        4.19548        0.27204
B         -2.46387        1.75901       -0.44732
B         -3.83247        2.61548        0.08506
B         -3.80347        0.95775       -0.17102
B         -1.14922        2.66652       -0.66416
B         -1.76132       -3.36716       -0.49824
B          3.27815        0.02096       -0.70785
B         -1.17103        0.94534       -1.01773
B          4.33602       -2.50205        0.53600
B         -5.13234       -1.41549        0.74706
B         -5.18072        0.13397        0.11305
B         -5.17763        1.81872        0.44083
B         -6.27904        0.93343        1.04788
B         -6.30300       -0.55705        1.13656
B          1.74204        0.89079       -0.76386
B         -1.11390       -2.30844       -1.43853
B          0.31752       -1.67928       -1.32269
B          5.46410       -1.66215        1.06722
B          5.65921       -0.11504        1.13792
B          5.46849        1.41856        1.22463
B          0.26055        0.07637       -0.96076
