45
isomer_2429.log	Energy: -112186.4640334
B         -2.62501        1.73119        0.41742
B         -2.61229        3.37315        0.05494
B         -1.20336        4.20226       -0.17808
B          0.25098        3.36049        0.36407
B         -1.16802        0.83241        0.71453
B          1.70670        0.85384        0.80203
B          1.64367        4.14984       -0.31540
B         -4.08579        0.86156        0.33355
B          1.63185        2.46428        0.25861
B         -4.02168        2.55819       -0.10501
B          0.22057        4.81845       -0.44860
B          3.07347        3.29948       -0.33798
B          3.09555        1.67200        0.21106
B          4.55357        0.86095       -0.29340
B          0.26605       -1.69937        0.84017
B          1.64729       -2.39115        0.20742
B          3.10592       -1.58875        0.17668
B          4.55871       -0.75799       -0.31047
B          4.39624       -2.31349       -0.57220
B          3.09416       -3.20441       -0.40654
B          1.66979       -4.06412       -0.40198
B          0.27216       -3.29814        0.29388
B          0.25096       -4.73881       -0.54935
B         -2.59100       -3.32249       -0.01564
B         -1.17684       -4.13753       -0.26599
B         -2.61414       -1.68865        0.38137
B         -4.00556       -2.51333       -0.15848
B         -4.08042       -0.82675        0.31575
B         -1.18150       -2.51006        0.53625
B         -1.19761        2.55824        0.58967
B          3.18351        0.13770        0.59159
B         -1.16287       -0.78709        0.69745
B          4.38118        2.42056       -0.52230
B         -5.34307        1.75461       -0.61837
B         -5.33516        0.12108       -0.40165
B         -5.33207       -1.70752       -0.65486
B         -6.50005       -0.75012       -1.24773
B         -6.50498        0.80251       -1.23136
B          1.71194       -0.79208        0.78468
B         -0.22006       -2.03444        1.53605
B          0.25508        1.75055        0.87653
B          5.89217        1.71660       -0.74299
B          6.09271        0.00477       -0.82593
B          5.90044       -1.72567       -0.84989
B          0.10679        0.54725        0.47051
