45
isomer_0243.log	Energy: -111383.5615018
B          2.63474       -1.63803        0.37198
B          2.62804       -3.27248       -0.02315
B          1.22228       -4.10114       -0.27609
B         -0.23599       -3.27484        0.27914
B          1.17422       -0.74986        0.68335
B         -1.70062       -0.78193        0.76335
B         -1.62456       -4.05480       -0.41932
B          4.09297       -0.76239        0.30903
B         -1.61941       -2.38099        0.18815
B          4.03524       -2.45014       -0.16339
B         -0.19905       -4.71622       -0.56232
B         -3.05697       -3.20859       -0.42848
B         -3.08548       -1.59245        0.15280
B         -4.54482       -0.77602       -0.33899
B         -0.26810        1.77446        0.85586
B         -1.64999        2.47443        0.23363
B         -3.10601        1.66829        0.18334
B         -4.55502        0.84291       -0.32382
B         -4.39680        2.40381       -0.55414
B         -3.09793        3.29528       -0.36757
B         -1.67628        4.15914       -0.34240
B         -0.27792        3.38377        0.34150
B         -0.25924        4.84101       -0.47282
B          2.58588        3.42314        0.03955
B          1.16977        4.23862       -0.19799
B          2.61320        1.78179        0.40401
B          4.00331        2.62136       -0.11589
B          4.08234        0.92592        0.32484
B          1.17762        2.59552        0.57169
B          1.20953       -2.47277        0.52423
B         -3.17916       -0.06631        0.56359
B          1.16402        0.86963        0.69852
B         -4.36699       -2.33022       -0.59847
B          5.35533       -1.63241       -0.65739
B          5.34176       -0.00356       -0.40821
B          5.33353        1.82971       -0.62497
B          6.50593        0.88793       -1.23392
B          6.51570       -0.66470       -1.24846
B         -1.71099        0.86399        0.77877
B          0.26264       -1.98134        0.21853
B         -0.24638       -1.67545        0.82355
B         -5.87965       -1.62669       -0.80881
B         -6.08537        0.08583       -0.85814
B         -5.89848        1.81699       -0.84716
B         -0.38682       -0.57019        2.56251
