45
isomer_2431.log	Energy: -113408.3106472
B         -2.57351        1.72824        0.44821
B         -2.55755        3.41496       -0.16606
B         -1.19496        4.17430       -0.22991
B          0.26279        3.45065        0.51428
B         -1.21158        0.91115        0.70680
B          1.71758        0.87016        0.84663
B          1.68873        4.16044       -0.24875
B         -3.92934        0.93185        0.16689
B          1.70066        2.52899        0.35896
B         -3.89467        2.54698       -0.23447
B          0.25450        4.72029       -0.43083
B          3.05722        3.30091       -0.21075
B          3.12253        1.71610        0.32020
B          4.52583        0.80434       -0.01279
B          0.19820       -1.70266        1.59588
B          1.55600       -2.34002       -0.13174
B          3.05159       -1.68669        0.15044
B          4.51767       -0.86556       -0.04781
B          4.33108       -2.46394       -0.72707
B          2.93953       -3.24266       -0.46831
B          1.58081       -4.08620       -0.38952
B          0.18365       -3.26075        0.15699
B          0.16358       -4.75710       -0.31921
B         -2.60191       -3.31210        0.16057
B         -1.25378       -4.12915       -0.01472
B         -2.61243       -1.63466        0.56539
B         -3.88841       -2.44880       -0.10415
B         -3.94103       -0.82091        0.25056
B         -1.15813       -2.46958        0.67632
B         -1.20358        2.57208        0.42773
B          3.18682       -0.04729        0.62185
B         -1.18904       -0.78238        0.78426
B          4.42369        2.45248       -0.53179
B         -5.21664        1.71231       -0.69001
B         -5.19519        0.05828       -0.29908
B         -5.24725       -1.59695       -0.58549
B         -6.29944       -0.71074       -1.25089
B         -6.27586        0.77293       -1.31327
B          1.59603       -0.87627        0.78400
B          0.20913        0.04682        1.20505
B          0.29613        1.79746        0.85841
B          5.55756        1.54007       -0.96478
B          5.71301       -0.01832       -1.00496
B          5.49666       -1.54885       -1.09733
B          0.11335       -1.41022       -0.12574
