45
isomer_2433.log	Energy: -113365.8063122
B         -2.51473       -1.47147       -0.70634
B         -2.30523       -3.00124        0.22855
B         -1.39143       -4.17136       -0.34122
B          0.06166       -3.19834       -0.95730
B         -1.16947       -0.53896       -0.99026
B          1.70801       -0.71416       -0.96791
B          1.23253       -3.86337        0.31045
B         -3.82357       -0.61696       -0.17115
B          1.58118       -2.39124       -0.66192
B         -3.65302       -2.12974        0.42399
B         -0.01648       -4.69562        0.07927
B          2.67360       -3.12730        0.38767
B          3.03975       -1.70982       -0.34107
B          4.49296       -0.89814        0.07630
B          0.39504        1.84228       -1.16861
B          1.80370        2.52612       -0.50568
B          3.18777        1.72008       -0.27331
B          4.41019        0.73217        0.35196
B          4.46450        2.41487        0.68008
B          3.12733        3.26015        0.25699
B          1.76081        4.11938        0.27833
B          0.39594        3.46347       -0.54343
B          0.37216        4.74103        0.39959
B         -2.40528        3.45826       -0.04260
B         -1.03889        4.18940        0.08372
B         -2.47626        1.76530       -0.60815
B         -3.70831        2.67646        0.14007
B         -3.87933        1.09401       -0.26213
B         -1.09105        2.66100       -0.82348
B         -1.38190       -2.49140       -1.31797
B          3.22684        0.01956       -0.61903
B         -1.04770        1.04608       -1.10712
B          4.09030       -2.41897        0.81472
B         -4.96178       -1.37755        0.90247
B         -5.13179        0.23715        0.36378
B         -5.03897        1.87955        0.73240
B         -6.02621        1.03341        1.52024
B         -5.96039       -0.44541        1.62807
B          1.75462        0.89191       -1.03545
B         -0.46185       -3.18082        0.77679
B          0.23153       -1.42502       -1.05097
B          5.21764       -1.55966        1.36152
B          5.62412       -0.08001        1.26550
B          5.55912        1.47740        1.18241
B         -0.92764       -1.74249        0.25024
