45
isomer_2436.log	Energy: -113436.5162622
B         -2.58058       -1.66981       -0.52109
B         -2.48770       -3.31012        0.16428
B         -1.10746       -4.08804        0.21864
B          0.28246       -3.27371       -0.49507
B         -1.17769       -0.82167       -0.96965
B          1.66955       -0.76864       -0.73488
B          1.69246       -4.07841        0.24081
B         -3.93632       -0.90720       -0.17123
B          1.65904       -2.41283       -0.42939
B         -3.78105       -2.48322        0.32086
B          0.30245       -4.65096        0.38256
B          3.03523       -3.22314        0.23675
B          3.11403       -1.61681       -0.20446
B          4.57784       -0.76025       -0.05423
B          0.27047        1.83306       -1.10868
B          1.63763        2.57203       -0.38156
B          3.05508        1.80158       -0.18946
B          4.40967        0.88174        0.29959
B          4.28048        2.52550        0.80183
B          2.91235        3.34643        0.38324
B          1.52610        4.14874        0.36609
B          0.17295        3.38869       -0.44856
B          0.08746        4.68002        0.47239
B         -2.63598        3.30368       -0.02727
B         -1.30587        4.08592        0.13780
B         -2.60696        1.59375       -0.59953
B         -3.92332        2.43842        0.11623
B         -3.98654        0.84233       -0.24626
B         -1.28565        2.53835       -0.73671
B         -1.13569       -2.42361       -0.37852
B          3.21823        0.08811       -0.61617
B         -1.23531        0.88342       -1.04682
B          4.36278       -2.40766        0.60996
B         -5.14919       -1.66598        0.79023
B         -5.22448       -0.05042        0.34142
B         -5.24216        1.61968        0.63150
B         -6.25739        0.72885        1.36788
B         -6.20344       -0.76341        1.45167
B          1.72929        0.95601       -0.98225
B          0.18720       -1.33926        0.13729
B          0.32192       -1.82106       -1.52026
B          5.43935       -1.44180        1.11154
B          5.64747        0.07871        1.16366
B          5.42581        1.62822        1.24554
B          0.24550        0.01475       -1.12969
