45
isomer_2437.log	Energy: -113435.9309045
B          2.51408        1.85427       -0.55603
B          2.42689        3.40124        0.01125
B          1.00744        4.15651        0.26406
B         -0.42612        3.38763       -0.28956
B          1.01944        0.90463       -0.93248
B         -1.77810        0.83579       -0.72643
B         -1.80739        4.09839        0.42915
B          3.94882        0.99794       -0.45164
B         -1.84020        2.49712       -0.35586
B          3.87854        2.62859        0.09870
B         -0.40744        4.70326        0.59519
B         -3.19871        3.25280        0.32602
B         -3.28625        1.71062       -0.21137
B         -4.73466        0.82618       -0.12765
B         -0.39414       -1.59435       -0.97619
B         -1.77694       -2.47292       -0.52163
B         -3.21360       -1.72189       -0.33940
B         -4.61840       -0.82216        0.06412
B         -4.49868       -2.49083        0.49524
B         -3.10708       -3.28220        0.10888
B         -1.67623       -4.08256        0.16533
B         -0.32495       -3.30059       -0.54033
B         -0.26021       -4.54596        0.45836
B          2.74033       -3.55904       -0.10096
B          1.20696       -3.96140        0.27921
B          2.46167       -1.50903       -0.25285
B          3.81515       -2.44512        0.24602
B          3.95628       -0.73636       -0.41166
B          0.95926       -2.27088       -0.18578
B          1.06494        2.60713       -0.53166
B         -3.32001        0.03058       -0.64646
B          1.01221       -0.67456       -0.90756
B         -4.57280        2.44202        0.60831
B          5.18171        1.86961        0.49830
B          5.24405        0.11906        0.17166
B          5.13325       -1.52601        0.59749
B          6.23355       -0.57962        1.20910
B          6.24102        0.94192        1.15206
B         -1.79798       -0.77093       -0.86209
B          2.09622       -2.56675        0.94922
B         -0.42048        1.73390       -0.84433
B         -5.66505        1.46468        1.01641
B         -5.87947       -0.06479        0.94760
B         -5.67255       -1.61751        0.93393
B          2.53560        0.13161       -0.85369
