45
isomer_2438.log	Energy: -113675.8855882
B         -2.50805       -1.76066       -0.48759
B         -2.42567       -3.33531        0.04114
B         -1.04553       -4.15734        0.12334
B          0.35265       -3.38462       -0.51454
B         -2.60955       -0.01720       -0.74587
B          1.78708       -0.82977       -0.91173
B          1.75023       -4.14392        0.24505
B         -3.95577       -0.91199       -0.21499
B          1.80350       -2.53215       -0.48985
B         -3.80818       -2.53821        0.29422
B          0.34404       -4.74587        0.35156
B          3.09387       -3.27973        0.26464
B          3.17433       -1.67930       -0.26100
B          4.53222       -0.79609        0.23812
B          0.31213        1.83054       -1.08676
B          1.72303        2.55172       -0.42956
B          3.12776        1.73431       -0.21975
B          4.54629        0.89590        0.14532
B          4.32473        2.50083        0.77180
B          3.00675        3.34151        0.27975
B          1.63980        4.17022        0.25914
B          0.26741        3.40289       -0.53885
B          0.21734        4.74799        0.35322
B         -2.51552        3.30326        0.03522
B         -1.15897        4.14900        0.10773
B         -2.56419        1.72963       -0.53180
B         -3.87098        2.48387        0.27443
B         -3.98462        0.84384       -0.22540
B         -1.18719        2.57748       -0.79024
B         -1.11811       -2.59030       -0.76475
B          3.29328        0.01728       -0.60872
B         -1.17087        0.85110       -1.07010
B          4.40836       -2.44331        0.74824
B         -5.05943       -1.74026        0.86595
B         -5.19535       -0.04613        0.52320
B         -5.10530        1.65013        0.84446
B         -6.10453        0.70498        1.60608
B         -6.08322       -0.81560        1.61414
B          1.71674        0.84381       -0.78647
B          0.34240        0.00258       -1.09311
B          0.37009       -1.82509       -1.11742
B          5.47469       -1.51721        1.30028
B          5.62018        0.03495        1.30437
B          5.37182        1.57095        1.33910
B         -1.12970       -0.84874       -1.04204
