45
isomer_2439.log	Energy: -113171.7148027
B          2.52446       -1.71143        0.38578
B          2.48328       -3.38859        0.00869
B          1.09510       -4.20335       -0.20167
B         -0.31687       -3.38369        0.34649
B          1.09839       -0.89040        0.65138
B         -1.70143       -0.82157        0.80100
B         -1.71936       -4.14323       -0.32184
B          3.92640       -0.85130        0.30915
B         -1.68951       -2.46933        0.25177
B          3.83316       -2.51278       -0.14987
B         -0.33628       -4.75795       -0.45143
B         -3.08740       -3.26223       -0.33223
B         -3.10472       -1.65620        0.20122
B         -4.53875       -0.78885       -0.26890
B         -0.30259        1.77345        0.87052
B         -1.67251        2.47972        0.25540
B         -3.08715        1.67736        0.21082
B         -4.50787        0.83866       -0.25798
B         -4.41920        2.44384       -0.54705
B         -3.03071        3.28033       -0.33208
B         -1.64860        4.13728       -0.32642
B         -0.25026        3.38754        0.34462
B         -0.25268        4.74109       -0.45406
B          2.57227        3.37887        0.01947
B          1.18797        4.18369       -0.19489
B          2.62284        1.71807        0.41860
B          3.94946        2.48957       -0.14689
B          3.96981        0.86776        0.30801
B          1.23223        2.61134        0.56117
B          1.15506       -2.60819        0.54610
B         -3.18003       -0.04754        0.58490
B          1.23012        0.90496        0.74342
B         -4.46839       -2.41612       -0.54439
B          5.10260       -1.74149       -0.68216
B          5.13707       -0.07790       -0.44122
B          5.17380        1.65945       -0.66960
B          6.24554        0.69840       -1.28404
B          6.24614       -0.80256       -1.30087
B         -1.69893        0.85749        0.80754
B          1.85650       -0.21386        1.75523
B         -0.31782       -1.75937        0.84548
B         -5.77659       -1.54703       -0.71588
B         -5.92663        0.05099       -0.76065
B         -5.72367        1.63270       -0.76279
B          0.11579        0.24239       -0.07983
