45
isomer_0244.log	Energy: -113437.5122195
B          2.49390       -1.64171        0.25218
B          2.45578       -3.28635       -0.26033
B          1.09700       -4.08921       -0.39793
B         -0.30739       -3.32658        0.30684
B          1.18536       -0.76629        0.74099
B         -1.76842       -0.83406        1.09014
B         -1.69215       -4.08943       -0.38487
B          3.92421       -0.92756        0.18528
B         -1.73980       -2.50180        0.45194
B          3.82860       -2.46371       -0.34664
B         -0.30686       -4.67736       -0.58720
B         -3.06108       -3.20814       -0.29949
B         -3.14915       -1.69809        0.33612
B         -4.50727       -0.74311       -0.12867
B         -0.19231        1.72284        0.85437
B         -1.69422        2.52644        0.44854
B         -3.10304        1.73110        0.32038
B         -4.57753        0.89868        0.18626
B         -4.37857        2.52008       -0.52150
B         -2.98685        3.31672       -0.28119
B         -1.57440        4.04155       -0.47350
B         -0.17187        3.23243        0.15243
B         -0.15599        4.56976       -0.70855
B          2.56368        3.22924       -0.07640
B          1.25953        3.99747       -0.40234
B          2.48636        1.54631        0.78422
B          3.81961        2.35942       -0.00986
B          3.92916        0.79359        0.36512
B          1.22509        2.21497       -0.22927
B          1.16531       -2.55518        0.53707
B         -3.25431        0.00964        0.73607
B          0.99270        0.64632       -0.16984
B         -4.44246       -2.40602       -0.60009
B          5.23838       -1.66239       -0.64956
B          5.27512       -0.05636       -0.07369
B          5.21405        1.59528       -0.38931
B          6.33946        0.74257       -1.04024
B          6.36854       -0.74473       -1.11350
B         -1.72028        0.82151        0.78474
B          1.20684        0.88553        1.52475
B         -0.29906       -1.81062        0.99451
B         -5.60367       -1.50321       -1.00759
B         -5.72620        0.03399       -1.00911
B         -5.40634        1.56292       -1.03771
B         -0.24947       -0.00644        1.14642
