45
isomer_2440.log	Energy: -113433.6585772
B         -2.44196       -1.69947       -0.46020
B         -2.61845       -3.20179        0.80353
B         -1.27283       -3.99996        0.88184
B         -0.02566       -3.25143       -0.37025
B         -1.24618       -0.65677       -1.00720
B          1.72471       -0.79329       -1.05084
B          1.47139       -3.97708        0.28524
B         -3.78173       -0.75122       -0.13404
B          1.61141       -2.48826       -0.52538
B         -3.73238       -2.19584        0.56405
B          0.14590       -4.45301        0.74712
B          2.89493       -3.25374        0.17927
B          3.06600       -1.72026       -0.36860
B          4.41199       -0.86074        0.20811
B          0.36174        1.86562       -0.91504
B          1.78975        2.54378       -0.33644
B          3.20640        1.71195       -0.19331
B          4.63125        0.77568       -0.04716
B          4.46740        2.40970        0.67955
B          3.14490        3.29317        0.36012
B          1.75829        4.15193        0.43600
B          0.36548        3.42028       -0.29643
B          0.35559        4.75010        0.57568
B         -2.44203        3.43654        0.11658
B         -1.08001        4.19014        0.28687
B         -2.48781        1.76688       -0.53065
B         -3.80417        2.63994        0.11607
B         -3.81089        0.98869       -0.20477
B         -1.13794        2.65366       -0.58300
B         -1.78000       -3.34213       -0.55138
B          3.27090       -0.00644       -0.70223
B         -1.17957        0.95679       -1.01029
B          4.30870       -2.51604        0.59590
B         -5.15515       -1.39500        0.71593
B         -5.18198        0.17652        0.13625
B         -5.14583        1.84899        0.49979
B         -6.23353        0.96740        1.13680
B         -6.30102       -0.52064        1.16390
B          1.74632        0.88312       -0.69798
B         -1.10912       -2.31790       -1.50595
B          0.31016       -1.69208       -1.28581
B          5.46482       -1.68575        1.08317
B          5.69244       -0.13444        1.09945
B          5.50620        1.39399        1.13613
B          0.26158        0.08838       -1.03041
