45
isomer_2442.log	Energy: -112480.2820309
B          2.60967       -1.68121        0.38706
B          2.60679       -3.31646       -0.00482
B          1.20267       -4.15113       -0.24680
B         -0.25514       -3.32946        0.31647
B          1.14776       -0.79817        0.70637
B         -1.72634       -0.84137        0.80550
B         -1.64522       -4.11626       -0.37124
B          4.06399       -0.79998        0.31272
B         -1.64264       -2.44123        0.23291
B          4.00979       -2.48888       -0.15599
B         -0.21810       -4.77236       -0.52240
B         -3.08098       -3.27570       -0.37256
B         -3.11201       -1.65853        0.20574
B         -4.57778       -0.84882       -0.27796
B         -0.30332        1.72080        0.88350
B         -1.69205        2.41411        0.26908
B         -3.14519        1.60216        0.23002
B         -4.59426        0.77009       -0.26590
B         -4.44372        2.33114       -0.50031
B         -3.14716        3.22806       -0.32411
B         -1.72880        4.09755       -0.31006
B         -0.32289        3.32904        0.36607
B         -0.31534        4.78473       -0.45122
B          2.53866        3.37906        0.04505
B          1.11781        4.18850       -0.18469
B          2.57487        1.73856        0.41253
B          3.95819        2.58254       -0.11822
B          4.04681        0.88830        0.32530
B          1.13724        2.54697        0.58814
B          1.18881       -2.52124        0.55039
B         -3.20898       -0.13196        0.61415
B          1.13128        0.82129        0.71843
B         -4.39555       -2.40282       -0.53557
B          5.32334       -1.66695       -0.66035
B          5.30500       -0.03767       -0.41427
B          5.28811        1.79511       -0.63456
B          6.46015        0.85673       -1.24942
B          6.47595       -0.69587       -1.26099
B         -1.74309        0.80452        0.81776
B          1.43884       -0.87872        1.65990
B         -0.26822       -1.72905        0.85780
B         -5.91233       -1.70565       -0.73725
B         -6.12512        0.00594       -0.78856
B         -5.94499        1.73784       -0.78222
B         -0.07653        0.66649       -0.13543
