45
isomer_2443.log	Energy: -112030.3623940
B          2.62016       -1.57626        0.35067
B          2.63652       -3.20522       -0.06623
B          1.24229       -4.05270       -0.32063
B         -0.22492       -3.25712        0.25553
B          1.14801       -0.71563        0.68384
B         -1.72533       -0.79446        0.78301
B         -1.60587       -4.04973       -0.44382
B          4.06389       -0.67679        0.28949
B         -1.62291       -2.38425        0.18594
B          4.02953       -2.35883       -0.20505
B         -0.17112       -4.68645       -0.60537
B         -3.05150       -3.22635       -0.43189
B         -3.10146       -1.61871        0.17113
B         -4.57695       -0.81915       -0.29973
B         -0.33278        1.78293        0.89992
B         -1.72990        2.46904        0.29654
B         -3.17332        1.64059        0.24541
B         -4.61263        0.79908       -0.26285
B         -4.48073        2.36522       -0.47335
B         -3.19482        3.27466       -0.28374
B         -1.78687        4.16060       -0.25671
B         -0.37165        3.39857        0.40721
B         -0.38173        4.86660       -0.38766
B          2.48897        3.48746        0.08629
B          1.05851        4.28341       -0.13066
B          2.54480        1.84207        0.42857
B          3.91777        2.71045       -0.08952
B          4.02668        1.01078        0.32795
B          1.09775        2.63057        0.61691
B          1.20943       -2.43549        0.50146
B         -3.21637       -0.09985        0.60292
B          1.11233        0.90315        0.72073
B         -4.37641       -2.36674       -0.58118
B          5.33301       -1.51373       -0.69707
B          5.29545        0.11125       -0.42604
B          5.25672        1.94687       -0.61820
B          6.43955        1.03200       -1.24767
B          6.47377       -0.51994       -1.28303
B         -1.76160        0.85074        0.82050
B          1.39520       -2.86197        1.76981
B         -0.25676       -1.66546        0.82133
B         -5.90143       -1.68462       -0.77178
B         -6.13454        0.02491       -0.79679
B         -5.97496        1.75853       -0.76394
B          0.37623       -0.78004        0.17780
