45
isomer_2444.log	Energy: -113392.1476963
B         -2.56433        1.75561        0.63672
B         -2.55004        3.43994        0.29502
B         -1.19347        4.22486        0.11134
B          0.26939        3.42457        0.52607
B         -1.20968        0.94941        1.14742
B          1.82176        0.96141        0.99645
B          1.61068        4.16582       -0.30672
B         -3.93088        0.94969        0.20127
B          1.74904        2.60372        0.38052
B         -3.85520        2.58356       -0.09806
B          0.18463        4.79855       -0.27165
B          2.98920        3.31338       -0.44303
B          3.10810        1.74651        0.11914
B          4.44941        0.83098       -0.42057
B          0.29608       -1.55114        0.92472
B          1.71188       -2.45102        0.57704
B          3.13128       -1.65085        0.24713
B          4.58924       -0.82120       -0.06923
B          4.30647       -2.45843       -0.66964
B          2.98466       -3.25367       -0.21964
B          1.58726       -4.04402       -0.12126
B          0.22741       -3.27933        0.64660
B          0.13851       -4.60022       -0.33617
B         -2.42434       -3.17255       -0.13030
B         -1.28323       -4.17068       -0.64179
B         -2.57990       -1.44838        0.46474
B         -3.76136       -2.23115       -0.43440
B         -3.94583       -0.72288        0.19268
B         -1.25063       -2.32424        0.93368
B         -1.23253        2.64769        0.94442
B          3.27934        0.07511        0.57466
B         -1.22329       -0.66098        1.11217
B          4.32816        2.47065       -0.93111
B         -4.97554        1.79428       -0.88740
B         -5.17821        0.13536       -0.57570
B         -5.08194       -1.55911       -0.95583
B         -6.09933       -0.62988       -1.69848
B         -5.96725        0.86112       -1.75951
B          1.74200       -0.76582        0.80668
B         -1.25652       -3.94477        0.93018
B          0.34238        1.83179        1.14266
B          5.46748        1.57162       -1.38194
B          5.60947       -0.01390       -1.36258
B          5.36229       -1.53366       -1.27510
B          0.27738        0.15226        1.07882
