45
isomer_2445.log	Energy: -112366.0713631
B          2.72905        1.71477       -0.43341
B          2.73346        3.35349       -0.03230
B          1.33185        4.20080        0.21125
B         -0.14740        3.41531       -0.34435
B          1.31532        0.87371       -0.75662
B         -1.78286        0.72140       -1.01638
B         -1.54858        4.20333        0.36008
B          4.12863        0.81328       -0.35230
B         -1.58365        2.54984       -0.24273
B          4.08511        2.49415        0.11197
B         -0.08815        4.80447        0.49906
B         -3.00414        3.34090        0.35947
B         -3.06818        1.70712       -0.23536
B         -4.54173        0.84394        0.27447
B         -0.31367       -1.79507       -1.01155
B         -1.70365       -2.45123       -0.26334
B         -3.14426       -1.62511       -0.22932
B         -4.56459       -0.77616        0.27853
B         -4.43414       -2.34669        0.56383
B         -3.10748       -3.24530        0.37853
B         -1.69248       -4.10820        0.35808
B         -0.29130       -3.36709       -0.36403
B         -0.26318       -4.75562        0.47293
B          2.59063       -3.37893       -0.06096
B          1.16352       -4.18312        0.18982
B          2.65721       -1.72768       -0.45860
B          3.99723       -2.56001        0.09163
B          4.09897       -0.90177       -0.35962
B          1.22180       -2.57403       -0.61367
B          1.32954        2.58108       -0.59400
B         -3.20429        0.08259       -0.66054
B          1.27069       -0.77200       -0.77270
B         -4.37910        2.43954        0.54243
B          5.37226        1.64090        0.61933
B          5.33294        0.02040        0.37376
B          5.30265       -1.77028        0.60256
B          6.43596       -0.86660        1.21477
B          6.48418        0.66724        1.22913
B         -1.76434       -0.84493       -0.87341
B         -0.08209       -1.42210       -0.16299
B         -0.07665        1.80548       -0.90755
B         -5.81369        1.66728        0.75933
B         -6.01618        0.00673        0.82705
B         -5.85896       -1.66175        0.84051
B         -1.10623        1.18589       -0.41281
