45
isomer_2447.log	Energy: -113382.2510161
B         -2.51225       -1.76925       -0.53779
B         -2.23895       -3.32573        0.06701
B         -0.72855       -3.88627        0.20597
B          0.66324       -3.18001       -0.63785
B         -1.23981       -0.87852       -1.21188
B          1.81269       -0.84297       -0.98035
B          2.06301       -3.76925        0.47513
B         -3.98881       -1.10670       -0.16983
B          2.42536       -2.72276       -0.83674
B         -3.63263       -2.62667        0.43558
B          0.66018       -4.25851        0.58602
B          3.46241       -3.03160        0.41637
B          3.13196       -1.42707        0.00675
B          4.42345       -0.40213        0.49124
B          0.01807        1.69640       -0.96470
B          1.37738        2.63826       -0.47122
B          2.81462        1.88704       -0.12770
B          4.30698        1.27665        0.19519
B          3.89461        2.84432        0.80568
B          2.52739        3.55492        0.26738
B          1.13379        4.25577        0.10962
B         -0.19156        3.30281       -0.50532
B         -0.35546        4.77203        0.08926
B         -2.99697        3.16687       -0.23226
B         -1.67809        4.08067       -0.18030
B         -2.85186        1.49747       -0.68025
B         -4.17709        2.23091        0.01460
B         -4.07922        0.54675       -0.21054
B         -1.51976        2.37330       -0.82356
B         -1.06971       -2.53114       -0.73390
B          3.11927        0.19872       -0.45105
B         -1.48333        0.70103       -1.12200
B          4.55739       -2.06023        0.97393
B         -4.93915       -1.98616        1.02945
B         -4.72348       -0.28763        1.06067
B         -5.22401        1.30877        0.90347
B         -6.03621        0.40743        1.79123
B         -5.98278       -1.10452        1.74045
B          1.49413        0.87318       -0.72249
B          0.16339       -0.02620       -1.00162
B          0.20274       -1.68675       -1.59766
B          5.48411       -0.98250        1.53337
B          5.43510        0.55299        1.49601
B          4.97095        2.01992        1.47371
B          1.50743       -2.29365       -1.96907
