45
isomer_2448.log	Energy: -113521.6262205
B         -2.52770       -1.72730       -0.57459
B         -2.57603       -3.35907       -0.19392
B         -1.22599       -4.14449        0.05384
B          0.26845       -3.40427       -0.43729
B         -1.02343       -0.88201       -0.83212
B          1.74881       -0.88641       -0.82561
B          1.58778       -4.10989        0.45357
B         -3.96223       -0.83238       -0.35095
B          1.69588       -2.51822       -0.21975
B         -3.93962       -2.50119       -0.03531
B          0.14959       -4.69215        0.48329
B          2.98623       -3.30690        0.46830
B          3.10726       -1.74816       -0.11479
B          4.55111       -0.90534        0.19098
B          0.44669        1.64308       -0.91733
B          1.87045        2.42093       -0.53183
B          3.31852        1.62178       -0.44661
B          4.71907        0.73386       -0.17923
B          4.59245        2.37831        0.40941
B          3.25483        3.22175        0.01900
B          1.91572        4.05565        0.13440
B          0.42840        3.31928       -0.48957
B          0.51902        4.61853        0.43964
B         -2.23442        3.11818        0.47935
B         -0.86461        3.99707        0.34491
B         -2.60323        1.89921       -1.00374
B         -3.58860        2.36728        0.62658
B         -3.86779        0.98732       -0.40717
B         -1.09578        2.50660       -0.67371
B         -1.16162       -2.57998       -0.80720
B          3.28756       -0.09891       -0.66154
B         -1.00621        0.80614       -0.70426
B          4.38583       -2.50575        0.79536
B         -5.13958       -1.61138        0.53886
B         -5.25072        0.11008        0.16190
B         -5.04087        1.69936        0.77515
B         -6.20886        0.85689        1.27015
B         -6.14740       -0.63129        1.27584
B          1.76217        0.74048       -0.78606
B         -2.12490        1.39005        0.59008
B          0.35007       -1.75302       -0.97303
B          5.59262       -1.63861        1.13331
B          5.84168       -0.09818        0.99543
B          5.65243        1.42244        0.93611
B         -2.44305        0.02061       -0.40986
