45
isomer_2449.log	Energy: -113675.8858743
B         -2.50916       -1.75995       -0.48982
B         -2.42724       -3.33488        0.03941
B         -1.04742       -4.15735        0.12243
B          0.35100       -3.38458       -0.51439
B         -1.12958       -0.84890       -1.04213
B          1.78662       -0.83046       -0.91148
B          1.74823       -4.14409        0.24626
B         -3.95583       -0.91068       -0.21486
B          1.80201       -2.53271       -0.48830
B         -3.80926       -2.53739        0.29286
B          0.34180       -4.74563        0.35203
B          3.09194       -3.28032        0.26641
B          3.17309       -1.68004       -0.25962
B          4.53203       -0.79754        0.23800
B          0.31282        1.83068       -1.08746
B          1.72392        2.55109       -0.43009
B          3.12884        1.73340       -0.22102
B          4.54683        0.89421        0.14491
B          4.32585        2.49958        0.77056
B          3.00817        3.34045        0.27873
B          1.64162        4.16974        0.25850
B          0.26886        3.40332       -0.53949
B          0.21950        4.74805        0.35301
B         -2.51366        3.30374        0.03698
B         -1.15698        4.14921        0.10857
B         -2.56324        1.73052       -0.53057
B         -3.86944        2.48481        0.27628
B         -3.98404        0.84513       -0.22470
B         -1.18585        2.57744       -0.78877
B         -1.11919       -2.59017       -0.76596
B          3.29359        0.01614       -0.60951
B         -1.17010        0.85091       -1.06881
B          4.40672       -2.44405        0.74963
B         -5.05989       -1.73882        0.86556
B         -5.19537       -0.04473        0.52314
B         -5.10448        1.65169        0.84533
B         -6.10455        0.70662        1.60600
B         -6.08387       -0.81414        1.61349
B          1.71773        0.84346       -0.78855
B         -2.60968       -0.01602       -0.74639
B          0.36955       -1.82519       -1.11758
B          5.47325       -1.51836        1.30167
B          5.61953        0.03364        1.30514
B          5.37265        1.56958        1.33833
B          0.34268        0.00256       -1.09375
