45
isomer_2450.log	Energy: -113478.6807771
B          2.56932       -1.70256        0.61247
B          2.47806       -3.12664       -0.42727
B          1.11427       -3.88409       -0.48553
B         -0.14396       -3.31263        0.57510
B          1.27589       -0.73551        0.74678
B         -1.67177       -0.74869        0.71033
B         -1.65934       -4.12716       -0.12213
B          3.94419       -0.82282        0.25103
B         -1.66378       -2.46927        0.36247
B          3.83736       -2.31015       -0.39150
B         -0.30899       -4.54411       -0.53854
B         -3.03280       -3.30466       -0.05468
B         -3.11988       -1.69584        0.40001
B         -4.58342       -0.83734        0.16755
B         -0.34443        1.86460        1.04479
B         -1.75346        2.55754        0.43289
B         -3.14916        1.75775        0.21950
B         -4.49484        0.79853       -0.21863
B         -4.42005        2.45965       -0.73360
B         -3.06388        3.29677       -0.36349
B         -1.69117        4.14696       -0.41889
B         -0.31140        3.38749        0.35705
B         -0.28375        4.69302       -0.57224
B          2.49771        3.31158       -0.04982
B          1.12520        4.09491       -0.27024
B          2.52969        1.65105        0.57191
B          3.84016        2.50026       -0.10129
B          3.94357        0.91874        0.29072
B          1.17222        2.60359        0.64997
B          1.31563       -2.73469        1.05944
B         -3.25710        0.06029        0.66993
B          1.16154        0.90141        1.02440
B         -4.39779       -2.46034       -0.43478
B          5.22180       -1.52489       -0.65557
B          5.29244        0.07058       -0.09467
B          5.22900        1.72119       -0.49987
B          6.32538        0.86913       -1.13171
B          6.32322       -0.60597       -1.21480
B         -1.77730        0.90124        0.93871
B          1.11557       -2.05570       -0.55397
B         -0.18455       -1.58785        0.38683
B         -5.45622       -1.53922       -0.99407
B         -5.73309       -0.01904       -1.05265
B         -5.56195        1.52656       -1.13938
B         -0.24815        0.05630        1.04740
