45
isomer_2453.log	Energy: -113441.1275526
B          2.49918       -1.70668        0.28555
B          2.34229       -3.27710       -0.38219
B          0.93707       -4.08125       -0.39011
B         -0.42103       -3.31715        0.40681
B          1.20951       -0.77653        0.71523
B         -1.80711       -0.77151        0.98404
B         -1.86087       -4.06114       -0.25268
B          3.95307       -1.02937        0.19960
B         -1.85315       -2.44011        0.53182
B          3.75460       -2.51472       -0.46635
B         -0.49758       -4.65098       -0.50263
B         -3.21640       -3.17893       -0.15870
B         -3.28711       -1.65056        0.42962
B         -4.67044       -0.68410        0.10677
B         -0.13766        1.66772        0.82293
B         -1.61688        2.52543        0.43733
B         -3.04648        1.78530        0.23640
B         -4.39743        0.91235       -0.29128
B         -4.30283        2.55432       -0.70464
B         -2.83464        3.28285       -0.40093
B         -1.40961        4.07113       -0.43694
B         -0.06871        3.18609        0.09468
B          0.02098        4.61523       -0.57363
B          2.70619        3.19128        0.06277
B          1.41667        3.98785       -0.26997
B          2.58052        1.43574        0.87367
B          3.90672        2.26512        0.07902
B          4.02234        0.69338        0.43728
B          1.35797        2.20411       -0.08813
B          1.07180       -2.53913        0.36014
B         -3.27044        0.08931        0.65504
B          1.08314        0.61464       -0.12581
B         -4.55714       -2.32123       -0.50130
B          5.17701       -1.76266       -0.76614
B          5.30516       -0.18716       -0.12801
B          5.26593        1.46985       -0.39523
B          6.32747        0.62823       -1.14219
B          6.29385       -0.84766       -1.28510
B         -1.74130        0.85786        1.01593
B          1.24064        0.88427        1.58787
B         -0.35538       -1.72739        0.87642
B         -5.59918       -1.33352       -1.03651
B         -5.78694        0.18631       -1.04291
B         -5.52741        1.73864       -1.07395
B         -0.20641        0.01188        1.21641
