45
isomer_2454.log	Energy: -113624.3731903
B          2.45521        1.93058       -0.61814
B          2.27254        3.46216        0.13893
B          0.83930        4.20581        0.22439
B         -0.52163        3.41911       -0.49292
B          1.13532        1.12663       -1.26493
B         -1.76525        0.79300       -1.00293
B         -1.93379        4.01017        0.31455
B          3.96140        1.21854       -0.38094
B         -1.88339        2.46283       -0.59749
B          3.58914        2.59531        0.41706
B         -0.59336        4.70323        0.47938
B         -3.23234        3.03497        0.30779
B         -3.15262        1.48142       -0.19206
B         -4.44866        0.41482        0.23922
B         -0.01145       -1.61088       -1.09471
B         -1.30692       -2.56604       -0.48057
B         -2.83376       -1.91539       -0.31565
B         -4.32906       -1.26778       -0.01962
B         -3.91546       -2.80266        0.67954
B         -2.48517       -3.48696        0.21067
B         -1.03415       -4.12014        0.20232
B          0.28501       -3.20030       -0.64984
B          0.44646       -4.46365        0.35236
B          2.99817       -2.68962        0.10536
B          1.72710       -3.70323        0.10792
B          2.97502       -1.49498       -1.40135
B          4.25146       -1.69898       -0.23909
B          4.03920       -0.25725       -0.97687
B          1.60251       -2.21545       -0.97085
B          1.05096        2.77064       -0.74566
B         -3.10110       -0.22991       -0.63440
B          1.47965       -0.44682       -1.03161
B         -4.45902        2.09117        0.73441
B          4.44952        1.55777        1.25178
B          4.29275       -0.17665        0.73867
B          3.49359       -1.66246        1.38776
B          4.26441       -0.74246        2.36127
B          4.86631        0.55149        2.25561
B         -1.48588       -0.85607       -0.84961
B          2.61302       -0.82938        0.18938
B         -0.43399        1.89911       -1.23282
B         -5.50139        1.05029        1.23029
B         -5.49264       -0.48747        1.22599
B         -5.02435       -1.96744        1.26198
B         -0.14267        0.11291       -1.22457
