45
isomer_2456.log	Energy: -113641.7003714
B          2.44115       -1.76270        0.17923
B          2.42368       -3.40857       -0.09240
B          1.03017       -4.23467       -0.11693
B         -0.37612       -3.37509        0.39686
B          2.47470       -0.03328        0.45758
B         -1.77175       -0.77584        0.75901
B         -1.80918       -4.19255       -0.15175
B          3.83158       -0.92615       -0.11497
B         -1.82915       -2.54675        0.57703
B          3.83060       -2.60905       -0.35402
B         -0.39146       -4.80633       -0.30374
B         -3.16046       -3.33157       -0.08928
B         -3.19560       -1.69188        0.29072
B         -4.61157       -0.80442        0.00003
B         -0.32706        1.85418        1.06221
B         -1.72989        2.59765        0.41271
B         -3.12989        1.77433        0.20160
B         -4.48873        0.87198       -0.28409
B         -4.33952        2.51151       -0.81630
B         -3.00214        3.36498       -0.34522
B         -1.63806        4.21180       -0.29850
B         -0.26163        3.41700        0.49012
B         -0.20878        4.78592       -0.35224
B          2.54165        3.34103        0.02401
B          1.17633        4.19186       -0.06126
B          2.50930        1.73231        0.38500
B          3.92843        2.50150       -0.21631
B          3.86610        0.82438       -0.05602
B          1.19671        2.61014        0.81243
B          1.10773       -2.60218        0.63574
B         -3.29316        0.06764        0.61223
B          1.13516        0.84270        1.04091
B         -4.46669       -2.47606       -0.55098
B          5.19014       -1.79071       -0.70861
B          5.19791       -0.06682       -0.48892
B          5.25053        1.65842       -0.61410
B          6.44118        0.69618       -1.09139
B          6.41515       -0.84276       -1.12142
B         -1.77407        0.90459        0.86949
B          1.13166       -0.88206        0.99650
B         -0.37700       -1.75736        0.77353
B         -5.48285       -1.51171       -1.13751
B         -5.65884        0.03083       -1.21425
B         -5.44519        1.58276       -1.31784
B         -0.35109        0.05479        0.92110
