45
isomer_2457.log	Energy: -113674.1578557
B         -2.47794        1.78563        0.49067
B         -2.37757        3.36599       -0.03314
B         -0.99638        4.18360       -0.08089
B          0.39035        3.38475        0.54021
B         -1.11609        0.86825        1.04883
B          1.81268        0.81745        0.93638
B          1.79870        4.13769       -0.20999
B         -3.91502        0.95245        0.15953
B          1.82822        2.51652        0.50472
B         -3.74865        2.56800       -0.33964
B          0.40012        4.75800       -0.30988
B          3.12944        3.25254       -0.25381
B          3.18728        1.65007        0.25908
B          4.52751        0.74485       -0.26435
B          0.28704       -1.82607        1.07974
B          1.67081       -2.55588        0.40088
B          3.08123       -1.76257        0.13810
B          4.53401       -0.94543       -0.13257
B          4.27382       -2.53856       -0.81363
B          2.94632       -3.36821       -0.31784
B          1.56918       -4.18553       -0.25580
B          0.22063       -3.41266        0.57969
B          0.14656       -4.75825       -0.31219
B         -2.57193       -3.29251        0.01845
B         -1.22352       -4.14576       -0.06195
B         -2.60157       -1.71174        0.58860
B         -3.91413       -2.45636       -0.22066
B         -4.00761       -0.80132        0.26119
B         -1.22536       -2.56399        0.81869
B         -1.09257        2.61117        0.79556
B          3.28093       -0.05225        0.59022
B         -2.59808        0.03870        0.72245
B          4.44014        2.40483       -0.73550
B         -4.98069        1.77562       -0.95544
B         -5.16362        0.09581       -0.56803
B         -5.12925       -1.61080       -0.81585
B         -6.08794       -0.66561       -1.62962
B         -6.00302        0.84778       -1.70445
B          1.68842       -0.85271        0.71635
B         -1.18389       -0.84026        1.09178
B          0.39335        1.81768        1.13213
B          5.50432        1.46964       -1.29113
B          5.62606       -0.08830       -1.30125
B          5.33743       -1.61121       -1.35388
B          0.34025       -0.00104        1.08825
