45
isomer_2458.log	Energy: -113441.5242810
B         -2.64561        1.64186        0.45056
B         -2.59626        3.34318        0.00333
B         -1.24439        4.15520       -0.19759
B          0.21896        3.40564        0.34038
B         -1.29358        0.80358        0.84483
B          1.68628        0.86826        0.79153
B          1.60846        4.14880       -0.35873
B         -4.00056        0.79576        0.32745
B          1.65753        2.52458        0.25080
B         -3.97346        2.43165       -0.15808
B          0.18716        4.74473       -0.48331
B          3.00364        3.28534       -0.34415
B          3.09452        1.74110        0.17735
B          4.52962        0.89131       -0.25487
B          0.36309       -1.78779        0.87478
B          1.79446       -2.46683        0.25883
B          3.18527       -1.62464        0.21318
B          4.54008       -0.75748       -0.23343
B          4.56645       -2.41591       -0.56123
B          3.15838       -3.22623       -0.32429
B          1.82052       -4.12680       -0.35352
B          0.37476       -3.40091        0.33031
B          0.42148       -4.74896       -0.48590
B         -2.43806       -3.35493       -0.05775
B         -1.03554       -4.18309       -0.24783
B         -2.54728       -1.68453        0.43867
B         -3.86808       -2.47792       -0.22259
B         -3.97261       -0.91441        0.30840
B         -1.17908       -2.63093        0.52324
B         -1.32199        2.57848        0.57769
B          3.22494        0.08603        0.56571
B         -1.10352       -0.90906        0.74908
B          4.46154        2.54540       -0.58481
B         -5.21251        1.65860       -0.71090
B         -5.19237       -0.02211       -0.47456
B         -5.14432       -1.73344       -0.74485
B         -6.26257       -0.79641       -1.38413
B         -6.30489        0.69955       -1.37771
B          1.74049       -0.84079        0.81190
B         -2.16173       -0.28076        1.74048
B          0.22597        1.78845        0.90430
B          5.73758        1.69953       -0.80216
B          5.94033        0.09667       -0.81120
B          5.79521       -1.49201       -0.80619
B          0.16167       -0.05777        0.49696
