45
isomer_2459.log	Energy: -113308.8476429
B          2.56825        1.71744       -0.43733
B          2.46204        3.37004       -0.06774
B          1.06683        4.19290        0.16677
B         -0.36912        3.39430       -0.35784
B          1.27114        0.78112       -0.72306
B         -1.81718        0.74374       -0.82868
B         -1.76380        4.13463        0.33799
B          3.96729        0.90019       -0.36460
B         -1.80219        2.48396       -0.24989
B          3.85442        2.54445        0.08518
B         -0.37045        4.72891        0.44455
B         -3.17042        3.26632        0.34852
B         -3.19262        1.64928       -0.21578
B         -4.62308        0.75932        0.25450
B         -0.26076       -1.76926       -0.90446
B         -1.64801       -2.49260       -0.25745
B         -3.11214       -1.70531       -0.21203
B         -4.57068       -0.88815        0.26196
B         -4.41754       -2.47008        0.55704
B         -2.99934       -3.30318        0.34934
B         -1.55620       -4.12678        0.33443
B         -0.20355       -3.35569       -0.35826
B         -0.12420       -4.69306        0.44175
B          2.65382       -3.30792       -0.08148
B          1.28059       -4.12356        0.17003
B          2.69584       -1.65818       -0.48241
B          4.04298       -2.41329        0.06607
B          4.03139       -0.79113       -0.36591
B          1.24337       -2.53914       -0.60886
B          1.13886        2.60958       -0.58499
B         -3.25264        0.01788       -0.61562
B          1.15717       -0.85139       -0.74862
B         -4.56582        2.37586        0.55729
B          5.14013        1.81103        0.58395
B          5.19634        0.15434        0.35725
B          5.25965       -1.57790        0.57386
B          6.30624       -0.61935        1.15277
B          6.29877        0.87754        1.17775
B         -1.76158       -0.89348       -0.82858
B          2.13441       -0.57886        0.52496
B         -0.38328        1.80360       -0.90487
B         -5.84911        1.48149        0.70829
B         -5.97354       -0.12241        0.75067
B         -5.75999       -1.68476        0.76281
B         -0.22230        0.16760       -0.76928
