45
isomer_0246.log	Energy: -113489.6631284
B         -2.88562       -0.94088       -1.21476
B         -3.43650       -2.30627        0.34382
B         -2.24921       -3.37222       -0.06967
B         -0.56959       -2.96864       -0.36638
B         -1.33638       -0.36049       -1.35548
B          1.53202       -1.03013       -1.09837
B          0.44950       -3.99453        0.50941
B         -3.98324        0.06002       -0.47196
B          1.06528       -2.58744       -0.43902
B         -4.38675       -1.51458       -0.79434
B         -1.03479       -4.24263        0.46856
B          2.02613       -3.50338        0.56244
B          2.59454       -2.14184       -0.12510
B          4.04784       -1.49902        0.48850
B          0.66348        1.83703       -1.20056
B          2.19990        2.25521       -0.71730
B          3.40437        1.18050       -0.32480
B          4.62384       -0.00164        0.02948
B          4.72681        1.68219        0.60283
B          3.62041        2.74467        0.10628
B          2.44547        3.85816        0.10156
B          0.95688        3.36259       -0.64153
B          1.20172        4.70259        0.23898
B         -1.74591        3.69260        0.18483
B         -0.27735        4.33687        0.11127
B         -2.17913        2.17496       -0.49390
B         -3.06076        2.95872        0.74013
B         -3.67521        1.60781       -0.04815
B         -0.69223        2.83490       -0.70794
B         -1.67603       -2.12514       -1.34887
B          3.18178       -0.55605       -0.61982
B         -0.99208        1.16976       -1.21701
B          3.53888       -3.04003        1.04596
B         -4.47664       -1.15941        0.91993
B         -4.20819        0.52958        1.12785
B         -4.02795        2.14256        1.63351
B         -4.85656        1.08777        2.48544
B         -5.04358       -0.35633        2.17848
B          1.87009        0.55895       -0.94321
B         -3.27518       -2.62494       -1.28611
B         -0.07195       -1.68572       -1.35993
B          4.82739       -2.42437        1.53686
B          5.38737       -0.97504        1.40823
B          5.50955        0.55260        1.25142
B          0.26757        0.08066       -1.23159
