45
isomer_2461.log	Energy: -113454.5843545
B          2.58831       -1.60355        0.48903
B          2.55099       -3.30379        0.00795
B          1.24442       -4.11514        0.15063
B         -0.25403       -3.33492        0.87807
B          1.22825       -0.73454        0.88448
B         -1.60746       -0.79569        0.66272
B         -1.52728       -4.12164       -0.09517
B          3.88639       -0.82781        0.07509
B         -1.37202       -2.37679       -0.07101
B          3.82749       -2.42978       -0.28494
B         -0.15282       -4.69618       -0.03227
B         -2.84731       -3.26938       -0.32772
B         -2.99685       -1.73217        0.18412
B         -4.44120       -0.88818       -0.18132
B         -0.33607        1.82175        1.20341
B         -1.72697        2.54828        0.48725
B         -3.11284        1.72938        0.26896
B         -4.37767        0.77262       -0.36525
B         -4.33933        2.44269       -0.75927
B         -3.03574        3.30468       -0.24271
B         -1.68079        4.15330       -0.18957
B         -0.29379        3.43191        0.63106
B         -0.26353        4.71899       -0.31106
B          2.50772        3.39317        0.02468
B          1.15298        4.15140       -0.04188
B          2.52565        1.67056        0.58849
B          3.76880        2.53940       -0.24557
B          3.87829        0.93466        0.09035
B          1.18640        2.58509        0.75635
B          1.15440       -2.43548        0.53477
B         -3.18041       -0.01518        0.55331
B          1.19684        0.94258        1.07252
B         -4.17014       -2.50404       -0.79512
B          5.13397       -1.58900       -0.85803
B          5.14662        0.06808       -0.46238
B          5.07321        1.71270       -0.81641
B          6.12269        0.81617       -1.54051
B          6.15033       -0.67972       -1.54343
B         -1.75615        0.90893        1.00822
B         -0.07957       -1.28050       -0.16358
B         -0.29908       -1.76988        1.50610
B         -5.28829       -1.59003       -1.32504
B         -5.52916       -0.06593       -1.33104
B         -5.40478        1.51213       -1.30476
B         -0.25044        0.00083        1.23046
