45
isomer_2463.log	Energy: -113350.4433474
B          2.59725       -1.71358        0.45760
B          2.52182       -3.39756        0.05879
B          1.10133       -4.16345       -0.14902
B         -0.31856       -3.39416        0.37020
B          1.30654       -0.84964        0.69755
B         -1.68945       -0.81203        0.80277
B         -1.73296       -4.13672       -0.32699
B          3.95556       -0.83958        0.32950
B         -1.74810       -2.49797        0.25360
B          3.91060       -2.53016       -0.12570
B         -0.33059       -4.75326       -0.44533
B         -3.09971       -3.23670       -0.33516
B         -3.13044       -1.67428        0.18469
B         -4.52205       -0.79674       -0.26123
B         -0.30819        1.75390        0.87838
B         -1.67084        2.48365        0.28366
B         -3.08075        1.68743        0.21662
B         -4.47054        0.84807       -0.23974
B         -4.42929        2.51198       -0.54743
B         -3.03939        3.28394       -0.29965
B         -1.69215        4.16573       -0.30402
B         -0.28167        3.40201        0.38537
B         -0.29224        4.77613       -0.43785
B          2.54211        3.41656        0.01558
B          1.16364        4.20124       -0.17489
B          2.55294        1.68985        0.39827
B          3.90302        2.50761       -0.17869
B          3.95691        0.87706        0.30020
B          1.20490        2.62357        0.55985
B          1.19626       -2.62102        0.56742
B         -3.17985       -0.03037        0.56120
B          1.09989        0.90564        0.67178
B         -4.53430       -2.46393       -0.58179
B          5.14968       -1.72533       -0.69742
B          5.14989       -0.03527       -0.47091
B          5.14611        1.68907       -0.72924
B          6.26461        0.72800       -1.36496
B          6.26371       -0.78816       -1.36062
B         -1.66987        0.85553        0.81327
B          2.03784        0.06783        1.65416
B         -0.38765       -1.76055        0.88878
B         -5.77721       -1.58933       -0.79760
B         -5.91295        0.04397       -0.81034
B         -5.71446        1.63102       -0.80917
B         -0.01139       -0.34000        0.09847
