45
isomer_2464.log	Energy: -113477.4086309
B         -2.60026       -1.47083       -0.55586
B         -2.54162       -3.07780        0.07364
B         -1.15329       -3.69724        0.44199
B          0.28353       -3.38961       -0.83161
B         -1.05552       -0.85920       -0.36045
B          1.73453       -0.85507       -0.82891
B          1.68338       -4.04215        0.09736
B         -4.05323       -0.77954       -0.47082
B          1.44186       -2.32016        0.09790
B         -3.90849       -2.25191        0.20752
B          0.32095       -3.92362        0.80943
B          3.02420       -3.28674        0.19702
B          3.07196       -1.74450       -0.22203
B          4.40718       -0.77643        0.27041
B          0.28794        1.74870       -0.92683
B          1.72530        2.52825       -0.32696
B          3.15663        1.71784       -0.25938
B          4.60149        0.82458       -0.15554
B          4.47968        2.50247        0.46274
B          3.10932        3.34640        0.14519
B          1.70110        4.13000        0.23691
B          0.26817        3.37717       -0.51320
B          0.25763        4.61523        0.48507
B         -2.55551        3.32178        0.13646
B         -1.18933        4.09919        0.25578
B         -2.57635        1.62869       -0.48454
B         -3.90951        2.45807        0.23568
B         -4.03194        0.90556       -0.29349
B         -1.19345        2.47850       -0.25642
B         -1.25608       -2.55866       -0.93712
B          3.23782       -0.00503       -0.67012
B         -1.19822        0.82656       -0.67136
B          4.35993       -2.45983        0.62175
B         -5.33799       -1.59488        0.43565
B         -5.41979        0.07115        0.07744
B         -5.22057        1.66170        0.67881
B         -6.33487        0.68442        1.25120
B         -6.49347       -0.76653        1.02240
B          1.70153        0.86180       -0.64287
B         -0.25421       -2.16454        0.53298
B          0.29918       -1.72919       -1.23672
B          5.56588       -1.56446        0.99848
B          5.75883       -0.02512        0.97156
B          5.54164        1.53880        0.92256
B          0.26406        0.01613       -1.02171
