45
isomer_2466.log	Energy: -113382.4914695
B          2.50167        1.80762       -0.55792
B          2.40705        3.41845        0.01539
B          1.03855        4.21502        0.17610
B         -0.38803        3.47775       -0.52674
B          1.12749        1.03181       -1.11173
B         -1.82361        0.90954       -0.98022
B         -1.74257        4.14026        0.34188
B          3.91513        0.99137       -0.23195
B         -1.80876        2.59926       -0.49524
B          3.76656        2.56893        0.25344
B         -0.34946        4.75796        0.46271
B         -3.09737        3.24793        0.36627
B         -3.14683        1.69233       -0.17455
B         -4.51161        0.73313        0.28253
B         -0.30219       -1.60107       -1.12464
B         -1.68583       -2.45848       -0.53134
B         -3.11861       -1.70510       -0.29876
B         -4.54786       -0.94186        0.00657
B         -4.26231       -2.56782        0.65143
B         -2.89785       -3.35524        0.19909
B         -1.49198       -4.04893        0.19020
B         -0.16051       -3.19920       -0.55515
B          0.00525       -4.65229        0.23297
B          2.53148       -3.13896        0.03711
B          1.51108       -4.44336       -0.08638
B          2.67851       -1.41320       -0.64438
B          3.87280       -2.20048        0.28179
B          4.03880       -0.69622       -0.38940
B          1.23627       -2.12845       -0.52388
B          1.13352        2.71360       -0.76165
B         -3.27672        0.00307       -0.64082
B          1.23001       -0.53637       -1.02673
B         -4.38542        2.37423        0.83103
B          4.98482        1.77796        0.88114
B          5.25262        0.17894        0.38072
B          5.22331       -1.51320        0.70135
B          6.27172       -0.61227        1.39604
B          6.07793        0.85104        1.57591
B         -1.70464       -0.77571       -0.82685
B          0.94165       -3.22071        0.69501
B         -0.39314        1.93738       -1.19193
B         -5.46765        1.41480        1.34227
B         -5.59548       -0.12939        1.28643
B         -5.28565       -1.64923        1.25858
B         -0.30215        0.14512       -1.16571
