45
isomer_2467.log	Energy: -113458.7486617
B          2.56853       -1.60797        0.43823
B          2.52455       -3.31366       -0.04838
B          1.22675       -4.12568        0.18859
B         -0.23147       -3.33095        0.94106
B          1.21704       -0.74004        0.83298
B         -1.57939       -0.75391        0.51863
B         -1.55471       -4.14111       -0.00754
B          3.89422       -0.85301        0.10412
B         -1.40697       -2.41342        0.04682
B          3.80549       -2.45259       -0.31128
B         -0.18013       -4.71729        0.07797
B         -2.87206       -3.28663       -0.30295
B         -2.99957       -1.71944        0.10921
B         -4.46152       -0.86850       -0.10909
B         -0.32650        1.81893        1.21060
B         -1.71027        2.56952        0.47608
B         -3.08820        1.74625        0.22367
B         -4.36019        0.78722       -0.39797
B         -4.33534        2.46432       -0.76445
B         -3.01641        3.32211       -0.26840
B         -1.64861        4.15856       -0.19941
B         -0.27487        3.43679        0.65367
B         -0.22489        4.70733       -0.31613
B          2.53704        3.38291        0.05384
B          1.18832        4.14694       -0.02091
B          2.54864        1.66228        0.63419
B          3.79768        2.51480       -0.20225
B          3.90550        0.91335        0.15310
B          1.20048        2.57747        0.74513
B          1.08726       -2.40804        0.25880
B         -3.15007       -0.00075        0.50027
B          1.20222        0.93744        1.06880
B         -4.20708       -2.50272       -0.76439
B          5.11926       -1.60848       -0.86837
B          5.15272        0.03696       -0.44871
B          5.09192        1.69086       -0.77254
B          6.12598        0.79797       -1.52144
B          6.13250       -0.69869       -1.55511
B         -1.74948        0.92397        0.98530
B         -0.09905       -1.25324       -0.23262
B         -0.28800       -1.73485        1.45972
B         -5.31224       -1.56344       -1.26486
B         -5.57323       -0.04127       -1.27168
B         -5.42877        1.53580       -1.27825
B         -0.24710        0.00391        1.24595
