45
isomer_2468.log	Energy: -113146.0761833
B         -2.41258        1.91436        0.51224
B         -2.26783        3.50056       -0.28628
B         -0.85659        4.17941       -0.38241
B          0.51316        3.43625        0.39259
B         -1.06537        1.11048        1.05095
B          1.75713        0.86024        1.02730
B          1.97254        4.05958       -0.29431
B         -3.82071        1.16739        0.17666
B          1.91046        2.50073        0.62093
B         -3.56760        2.72099       -0.44094
B          0.58816        4.67569       -0.61335
B          3.28600        3.17593       -0.13137
B          3.24639        1.61536        0.40456
B          4.56566        0.60706        0.03045
B          0.21075       -1.76233        1.36020
B          1.41596       -2.19447       -0.13647
B          2.94684       -1.70884        0.10836
B          4.43361       -1.03920        0.08729
B          4.17031       -2.58251       -0.73715
B          2.70933       -3.25112       -0.57649
B          1.36412       -3.98955       -0.54211
B          0.03875       -3.01866        0.14958
B         -0.14283       -4.52621       -0.48300
B         -2.71170       -3.05933        0.21139
B         -1.55228       -3.96535       -0.61416
B         -2.65117       -1.14975        0.56005
B         -4.00695       -2.12224        0.19919
B         -4.05268       -0.51336        0.46564
B         -1.31424       -2.00780        0.47339
B         -0.97265        2.63795        0.49658
B          3.16643       -0.12160        0.70229
B         -1.03863       -0.45778        0.90742
B          4.57135        2.26740       -0.47589
B         -4.92667        1.89579       -0.89685
B         -5.24840        0.40600       -0.16737
B         -5.36092       -1.32375       -0.33765
B         -6.31856       -0.46104       -1.11124
B         -6.06773        0.98084       -1.44644
B          1.45095       -0.74433        0.84714
B         -1.22938       -3.69647        0.91669
B          0.44222        1.83850        1.08028
B          5.65917        1.27926       -0.89662
B          5.73218       -0.25654       -0.93365
B          5.37864       -1.73725       -1.03129
B          0.05539       -1.14026       -0.24613
