45
isomer_2469.log	Energy: -113485.9942857
B          2.69474        1.65646       -0.80481
B          2.62623        3.27719       -0.30809
B          1.29730        4.15797       -0.14321
B         -0.16494        3.40760       -0.65252
B          1.27471        0.83195       -1.34413
B         -1.70432        0.92250       -0.95002
B         -1.47689        4.22839        0.16264
B          4.04062        0.79089       -0.27236
B         -1.64688        2.62820       -0.60498
B          3.92855        2.39435        0.06790
B         -0.06130        4.79928        0.14296
B         -2.85508        3.38834        0.29980
B         -3.02995        1.82599       -0.18440
B         -4.38727        0.94965        0.35449
B         -0.28889       -1.69789       -1.26023
B         -1.46824       -2.36243       -0.32382
B         -3.02387       -1.61998       -0.17628
B         -4.33967       -0.69840        0.46602
B         -4.09446       -2.34482        0.95018
B         -2.83752       -3.14093        0.32646
B         -1.47665       -4.03759        0.00117
B         -0.30500       -3.40220       -1.39400
B         -0.22729       -4.77382       -0.42199
B          1.95303       -3.00135        0.33093
B          1.17024       -4.16313       -0.39308
B          2.45019       -1.47743       -0.50806
B          3.26199       -2.12382        0.82835
B          3.83258       -0.86162       -0.10778
B          1.18435       -2.48735       -1.07624
B          1.31110        2.54389       -0.92048
B         -3.20413        0.12286       -0.49640
B          1.21346       -0.72278       -1.33111
B         -4.14186        2.58968        0.91253
B          4.97388        1.60048        0.93857
B          5.07970       -0.09073        0.73286
B          4.62748       -1.61431        1.37697
B          5.76053       -0.80475        2.04973
B          5.80269        0.67086        1.94269
B         -1.69143       -0.69993       -0.94272
B          0.06468       -2.97448        0.30714
B         -0.25481        1.86151       -1.22832
B         -5.13845        1.67948        1.56402
B         -5.33356        0.11164        1.61988
B         -5.15312       -1.43545        1.60646
B         -0.24250        0.09603       -1.13673
