45
isomer_2471.log	Energy: -112542.8232322
B         -2.54187       -1.72460       -0.41053
B         -2.50198       -3.38231       -0.05478
B         -1.07139       -4.21243        0.16855
B          0.37154       -3.35992       -0.37452
B         -1.06176       -0.76725       -0.75881
B          1.79665       -0.80508       -0.83420
B          1.76625       -4.12158        0.29919
B         -4.00959       -0.84925       -0.33744
B          1.75414       -2.44328       -0.27476
B         -3.90366       -2.54850        0.10427
B          0.34672       -4.78186        0.43007
B          3.17653       -3.25151        0.32133
B          3.18829       -1.62166       -0.23598
B          4.62764       -0.77244        0.25842
B          0.33419        1.73880       -0.90544
B          1.68467        2.46814       -0.25561
B          3.14327        1.68081       -0.21587
B          4.59813        0.86364        0.27166
B          4.43166        2.42810        0.54332
B          3.08596        3.29748        0.36174
B          1.66158        4.12619        0.35418
B          0.27543        3.35894       -0.34583
B          0.24366        4.75781        0.48763
B         -2.60520        3.36904       -0.01959
B         -1.18798        4.16608        0.20705
B         -2.66113        1.73816       -0.40379
B         -4.01762        2.54034        0.14133
B         -4.04915        0.85837       -0.32652
B         -1.15768        2.56645       -0.59302
B         -1.08297       -2.58575       -0.59606
B          3.25283       -0.05275       -0.62485
B         -1.05218        0.78968       -0.76853
B          4.50439       -2.35402        0.50977
B         -5.22429       -1.75222        0.61686
B         -5.25441       -0.10388        0.39727
B         -5.29193        1.69615        0.64099
B         -6.40587        0.72295        1.22890
B         -6.38891       -0.81122        1.22276
B          1.77331        0.86118       -0.83022
B         -1.86502        1.03054       -1.09347
B          0.38270       -1.72253       -0.89102
B          5.93927       -1.56668        0.70993
B          6.09739        0.10702        0.77880
B          5.88535        1.78312        0.79921
B         -0.98699       -1.35826        0.29760
