45
isomer_2472.log	Energy: -113478.3198016
B         -2.52663        1.65400        0.56115
B         -2.49277        3.31632       -0.06012
B         -1.11786        4.09900       -0.27608
B          0.31688        3.38528        0.34803
B         -1.16387        0.89953        1.01383
B          1.77879        0.89660        0.94781
B          1.69923        4.14976       -0.41311
B         -3.94077        0.92382        0.28282
B          1.75938        2.55721        0.44658
B         -3.83575        2.50683       -0.10991
B          0.29379        4.69850       -0.57056
B          3.06841        3.29568       -0.35354
B          3.15082        1.75366        0.22733
B          4.49683        0.79608       -0.21011
B          0.18418       -1.60723        0.45574
B          1.66179       -2.47442        0.36767
B          3.11792       -1.69832        0.39384
B          4.58157       -0.84203        0.16032
B          4.39036       -2.46223       -0.44838
B          3.02676       -3.30716       -0.06616
B          1.65513       -4.12630       -0.13161
B          0.13993       -3.32559        0.58275
B          0.30535       -4.53573       -0.55443
B         -2.47700       -3.11935       -0.43613
B         -1.11461       -3.87366       -0.49678
B         -2.57256       -1.70826        0.61664
B         -3.84068       -2.30530       -0.39771
B         -3.93602       -0.81619        0.24195
B         -1.32679       -2.74733        1.06435
B         -1.16733        2.60296        0.63372
B          3.26125        0.05513        0.67929
B         -1.27955       -0.73189        0.72448
B          4.42139        2.45842       -0.72540
B         -5.22902        1.72452       -0.49964
B         -5.29107        0.07468       -0.08911
B         -5.22406       -1.52186       -0.65204
B         -6.32797       -0.60202       -1.20339
B         -6.33007        0.87249       -1.12230
B          1.67362       -0.75709        0.73751
B         -1.10610       -2.05043       -0.54175
B          0.34429        1.86441        1.04004
B          5.55758        1.52532       -1.14060
B          5.72353       -0.01942       -1.06503
B          5.44251       -1.53787       -1.01627
B          0.24919        0.05949        1.05436
