45
isomer_2474.log	Energy: -113239.9719620
B         -3.00749       -1.54212       -0.47677
B         -3.35286       -3.15212        0.14079
B         -2.13786       -4.08722        0.19545
B         -0.53011       -3.60014       -0.70920
B         -1.64066       -1.16052       -1.09907
B          1.59628       -0.74933       -1.08760
B          0.68448       -4.14097        0.29706
B         -3.84955       -0.31427       -0.04149
B          0.96289       -2.47911       -0.64907
B         -4.35098       -1.86481        0.43320
B         -0.72797       -4.59516        0.52378
B          2.07964       -3.47613        0.21622
B          2.54994       -2.05053       -0.35392
B          4.07474       -1.48553        0.29177
B          0.94861        1.97030       -1.40119
B          2.38585        2.42570       -0.53346
B          3.48494        1.30251       -0.23342
B          4.45322        0.11889        0.45964
B          4.79511        1.73961        0.92360
B          3.66701        2.82994        0.42394
B          2.47503        3.94025        0.32845
B          1.10714        3.48724       -0.63834
B          1.18464        4.72068        0.36044
B         -1.68240        3.61708       -0.15365
B         -0.25782        4.30062       -0.01268
B         -1.90354        1.90970       -0.64845
B         -3.02408        2.98292        0.15022
B         -3.38362        1.36866       -0.11318
B         -0.44195        2.85779       -0.93472
B         -2.07676       -2.80133       -0.86417
B          3.19794       -0.38030       -0.59159
B         -0.39386        1.14705       -1.15406
B          3.48598       -2.98600        0.81103
B         -5.23434       -0.72635        1.08122
B         -4.67111        0.85459        0.74906
B         -4.33559        2.47123        0.90182
B         -5.49628        1.88035        1.72229
B         -5.89785        0.43846        1.78618
B          2.04241        0.79257       -1.18693
B         -1.76769        0.32307       -0.88132
B         -0.51252       -2.27882       -1.55838
B          4.62138       -2.32640        1.55831
B          5.29633       -0.94788        1.54825
B          5.57872        0.58113        1.50117
B          0.00456       -0.91531       -1.08123
