45
isomer_2475.log	Energy: -113469.0093815
B         -2.22839       -1.55633        0.25955
B         -2.77103       -3.16458       -0.52059
B         -1.59607       -4.20538       -0.28569
B         -0.00914       -3.24418       -0.65682
B         -1.27971       -0.64982       -0.81918
B          1.62965       -0.87187       -0.89728
B          1.24358       -4.00708        0.39351
B         -3.62471       -0.65062        0.47060
B          1.49976       -2.49854       -0.35174
B         -3.88088       -2.18205        0.02434
B         -0.28337       -4.44176        0.44833
B          2.68024       -3.36239        0.39204
B          2.97905       -1.79665       -0.25011
B          4.41774       -1.05597        0.11893
B          0.39609        1.81459       -1.09723
B          1.89643        2.48132       -0.56383
B          3.24069        1.58686       -0.36140
B          4.57641        0.62408        0.06679
B          4.51836        2.30396        0.57946
B          3.24962        3.18722        0.11794
B          1.91023        4.11659        0.13530
B          0.47737        3.39662       -0.48516
B          0.54594        4.80192        0.24033
B         -2.31713        3.55132        0.03394
B         -0.91174        4.26251        0.04053
B         -2.27053        1.82664       -0.00508
B         -3.61494        2.74040        0.42604
B         -3.57037        1.10793        0.57652
B         -1.06023        2.67097       -0.72645
B         -1.44674       -2.35710       -1.19352
B          3.28046       -0.12848       -0.73284
B         -1.14416        0.94587       -0.80656
B          4.08835       -2.58933        0.83561
B         -5.18895       -1.31750        0.43250
B         -4.91402        0.26765        0.92842
B         -5.04161        1.94718        0.71388
B         -6.32923        1.11197        0.72509
B         -6.40459       -0.35969        0.58146
B          1.78616        0.81780       -0.98036
B         -1.24395       -2.80233        0.57624
B          0.15198       -1.71021       -1.20443
B          5.20612       -1.73825        1.35152
B          5.56675       -0.22378        1.23707
B          5.52283        1.31316        1.15841
B          0.26770        0.03729       -0.92607
