45
isomer_2476.log	Energy: -113571.1488116
B         -2.17456        1.75261        0.02996
B         -1.98235        3.42820       -0.30501
B         -0.49446        4.04802       -0.44404
B          0.83256        3.10092        0.01570
B         -0.89337        0.64885        0.29088
B          1.98795        0.57223        0.94941
B          2.34652        3.85013       -0.17504
B         -3.69950        1.16017        0.01291
B          2.18686        2.17164        0.43071
B         -3.47363        2.81881       -0.36390
B          0.99086        4.57693       -0.47608
B          3.64407        2.91245        0.03004
B          3.58011        1.32018        0.54841
B          4.92669        0.27979        0.50682
B          0.51874       -0.37719        0.35834
B          1.19432       -1.82862       -0.14534
B          2.88928       -1.91975        0.20655
B          4.46667       -1.25234       -0.11837
B          3.85971       -2.56615       -1.07899
B          2.32129       -2.96826       -0.91677
B          0.84473       -3.49706       -0.73886
B         -0.07055       -2.83974        0.53541
B         -0.61107       -4.07020       -0.45353
B         -3.26775       -3.24716        0.01099
B         -2.11857       -4.25358       -0.27484
B         -2.83332       -1.65110        0.40792
B         -4.46025       -2.11957        0.04669
B         -4.00955       -0.52388        0.08946
B         -1.12465       -1.14464        0.78679
B         -0.69785        2.37218       -0.04682
B          3.43467       -0.40276        0.94263
B         -2.42353        0.05653        0.51547
B          4.96420        1.98244       -0.12827
B         -4.98393        2.26983       -0.40437
B         -5.21751        0.56673       -0.30559
B         -5.64681       -1.08819       -0.17209
B         -6.71597        0.07729       -0.41915
B         -6.41157        1.57810       -0.51541
B          1.89593       -1.07740        1.39549
B         -1.66504       -2.73306        0.07197
B          0.66614        1.39746        0.44441
B          5.91078        0.91070       -0.59353
B          5.83060       -0.60279       -0.87098
B          5.28945       -2.00239       -1.23240
B          0.39364       -1.68636        1.55242
