45
isomer_2478.log	Energy: -113420.5857151
B         -2.50799        1.75069        0.27130
B         -2.37962        3.35398       -0.29954
B         -0.93537        4.14080       -0.34181
B          0.41369        3.29013        0.24201
B         -1.19331        0.79744        0.69811
B          1.68238        0.68828        1.09844
B          1.89123        4.07475       -0.12862
B         -3.88184        0.97827       -0.02053
B          1.85182        2.44006        0.58026
B         -3.80100        2.59171       -0.38990
B          0.50222        4.72741       -0.40238
B          3.21961        3.18159        0.02827
B          3.19874        1.54457        0.53081
B          4.54800        0.67512        0.04162
B          0.22170       -1.76598        0.92143
B          1.52670       -2.59381        0.16667
B          2.93043       -1.73335       -0.07250
B          4.44683       -1.01888       -0.07396
B          4.19976       -2.53761       -0.89790
B          2.81751       -3.37164       -0.50932
B          1.44376       -4.18199       -0.40688
B          0.12171       -3.42684        0.57314
B         -0.01553       -4.69633       -0.42222
B         -2.70439       -3.20153        0.06961
B         -1.35481       -4.10605       -0.03810
B         -2.67522       -1.59975        0.72090
B         -3.96118       -2.28681       -0.10938
B         -3.97350       -0.69626        0.25513
B         -1.31014       -2.52351        0.65981
B         -1.10778        2.55408        0.37118
B          3.15006       -0.12256        0.59976
B         -1.21747       -0.78770        1.01095
B          4.57305        2.37741       -0.33292
B         -5.18392        1.80735       -0.76045
B         -5.31761        0.20541       -0.10818
B         -5.35412       -1.44981       -0.45682
B         -6.44267       -0.58903       -1.05036
B         -6.30532        0.89115       -1.24742
B          1.48071       -0.81990        0.13840
B          0.17497        0.14129       -0.10933
B          0.32976        1.68361        0.76313
B          5.61752        1.44337       -0.88549
B          5.66939       -0.09669       -1.03064
B          5.33630       -1.62031       -1.25746
B          0.27496       -0.11210        1.61118
