45
isomer_2479.log	Energy: -112132.6039256
B          2.55958        1.72664       -0.49910
B          2.54421        3.36198       -0.10791
B          1.13445        4.18171        0.15170
B         -0.32158        3.34416       -0.39248
B          1.10324        0.82781       -0.79926
B         -1.77219        0.84019       -0.86155
B         -1.71108        4.11642        0.31266
B          4.02409        0.86106       -0.44304
B         -1.69830        2.44118       -0.29076
B          3.95782        2.54955        0.02561
B         -0.28924        4.78785        0.44523
B         -3.13762        3.26055        0.33275
B         -3.15873        1.64281       -0.24441
B         -4.60943        0.81773        0.25838
B         -0.32293       -1.70665       -0.95669
B         -1.69616       -2.41443       -0.32421
B         -3.15729       -1.61806       -0.26688
B         -4.60871       -0.80127        0.24723
B         -4.43848       -2.36049        0.48036
B         -3.13475       -3.24358        0.28793
B         -1.70745       -4.09784        0.25606
B         -0.31864       -3.31471       -0.43837
B         -0.28502       -4.76977        0.37938
B          2.54717       -3.33391       -0.15405
B          1.13813       -4.15839        0.09423
B          2.56109       -1.69332       -0.52266
B          3.96006       -2.52216       -0.00933
B          4.02484       -0.82731       -0.45467
B          1.13007       -2.51718       -0.67948
B          1.12783        2.55131       -0.64455
B         -3.24458        0.11506       -0.65090
B          1.10396       -0.79174       -0.81042
B         -4.44057        2.37373        0.51298
B          5.28645        1.74201        0.51343
B          5.28241        0.11249        0.26830
B          5.28798       -1.72024        0.48957
B          6.45769       -0.76903        1.08896
B          6.45700        0.78366        1.09966
B         -1.77147       -0.80580       -0.87289
B          2.10371       -0.71695        1.92351
B         -0.32445        1.74339       -0.93292
B         -5.94708        1.66048        0.73439
B         -6.14085       -0.05326        0.78916
B         -5.94227       -1.78314        0.78124
B          0.38706        0.17746       -0.11622
