45
isomer_0248.log	Energy: -113675.8823408
B         -2.56529        1.72892        0.53267
B         -2.51747        3.30294       -0.03561
B         -1.16171        4.14908       -0.10654
B          0.26569        3.40338        0.54063
B         -1.17191        0.85088        1.06964
B          1.71528        0.84374        0.77976
B          1.63750        4.17122       -0.25849
B         -3.98543        0.84288        0.22519
B          1.72082        2.55230        0.42733
B         -3.87172        2.48273       -0.27544
B          0.21453        4.74808       -0.35197
B          3.00508        3.34372       -0.27977
B          3.12643        1.73572        0.21766
B          4.54695        0.89836       -0.14149
B          0.37175       -1.82434        1.11812
B          1.80516       -2.53163        0.49072
B          3.17544       -1.67839        0.26170
B          4.53147       -0.79350       -0.24130
B          4.41068       -2.44247       -0.74710
B          3.09606       -3.27861       -0.26452
B          1.75296       -4.14354       -0.24449
B          0.35484       -3.38377        0.51341
B          0.34692       -4.74600       -0.35070
B         -2.42398       -3.33643       -0.04050
B         -1.04316       -4.15730       -0.12367
B         -2.50663       -1.76058        0.48596
B         -3.80723       -2.53948       -0.29348
B         -3.95541       -0.91351        0.21583
B         -1.11650       -2.59044        0.76286
B         -1.18870        2.57693        0.78972
B          3.29322        0.01761        0.60922
B         -1.12808       -0.84899        1.03870
B          4.32287        2.50259       -0.77137
B         -5.10587        1.64781       -0.84467
B         -5.19565       -0.04829       -0.52244
B         -5.05903       -1.74234       -0.86504
B         -6.08428       -0.81858       -1.61226
B         -6.10623        0.70188       -1.60461
B          1.79021       -0.82987        0.91605
B         -2.61002       -0.01748        0.74623
B          0.31083        1.82997        1.08528
B          5.36868        1.57159       -1.33907
B          5.62041        0.03626       -1.30395
B          5.47784       -1.51606       -1.29833
B          0.34266        0.00301        1.09014
