45
isomer_2480.log	Energy: -112245.1608067
B          2.71367       -1.59990        0.37876
B          2.74996       -3.30185       -0.03710
B          1.36030       -4.22284       -0.32805
B         -0.29258       -3.38061        0.26038
B          1.22400       -0.63044        0.71627
B         -1.81746       -0.76240        0.79498
B         -1.68210       -4.11203       -0.43935
B          4.06938       -0.72528        0.26808
B         -1.80793       -2.38864        0.18918
B          4.04435       -2.40041       -0.17958
B         -0.19111       -4.74247       -0.57044
B         -3.14971       -3.22890       -0.43010
B         -3.20629       -1.60157        0.15509
B         -4.63137       -0.74476       -0.32598
B         -0.27338        1.75511        0.88831
B         -1.68358        2.45436        0.27018
B         -3.14433        1.66694        0.21678
B         -4.59926        0.85257       -0.29061
B         -4.44327        2.43092       -0.53953
B         -3.08906        3.28714       -0.32872
B         -1.68980        4.11306       -0.31580
B         -0.28986        3.35502        0.35438
B         -0.28304        4.73449       -0.45622
B          2.53558        3.39203       -0.01230
B          1.13500        4.16701       -0.21230
B          2.59172        1.74907        0.38476
B          3.90164        2.59173       -0.17518
B          4.02267        0.95940        0.27490
B          1.18943        2.55957        0.56371
B          1.39260       -2.49617        0.52878
B         -3.26452       -0.03378        0.58461
B          1.19032        0.86660        0.71612
B         -4.51968       -2.33477       -0.62739
B          5.29513       -1.54669       -0.71105
B          5.24309        0.07182       -0.46926
B          5.19671        1.82745       -0.69603
B          6.31021        0.95270       -1.31878
B          6.38071       -0.56609       -1.33643
B         -1.77735        0.87301        0.81077
B          1.12661       -0.18962        2.14892
B         -0.41129       -1.56776        0.89182
B         -5.90419       -1.51770       -0.80282
B         -6.06168        0.11538       -0.82858
B         -5.84182        1.72615       -0.79793
B          0.38158       -2.40684        0.83276
