45
isomer_2483.log	Energy: -113675.8317014
B          2.52810       -1.75117        0.50128
B          2.45574       -3.32157       -0.04240
B          1.08229       -4.15341       -0.12463
B         -0.32236       -3.39147        0.51978
B          1.14414       -0.84791        1.05680
B         -1.75879       -0.83458        0.87453
B         -1.71163       -4.15009       -0.25651
B          3.96616       -0.88752        0.21790
B         -1.77747       -2.53873        0.47175
B          3.83123       -2.51933       -0.28747
B         -0.30117       -4.74602       -0.35859
B         -3.06279       -3.29684       -0.27327
B         -3.15932       -1.69666        0.24925
B         -4.54002       -0.83081       -0.20334
B         -0.33008        1.83236        1.10010
B         -1.75209        2.54461        0.45353
B         -3.14503        1.71436        0.23713
B         -4.54441        0.86184       -0.17467
B         -4.35557        2.47860       -0.76512
B         -3.03523        3.31599       -0.27780
B         -1.67695        4.15870       -0.25947
B         -0.29557        3.39730        0.52735
B         -0.26149        4.74665       -0.35948
B          2.48333        3.31100       -0.04257
B          1.11795        4.15082       -0.12003
B          2.54512        1.74137        0.51366
B          3.85093        2.50255       -0.28131
B          3.97510        0.86639        0.22112
B          1.16306        2.58154        0.78226
B          1.14136       -2.58558        0.77408
B         -3.29522        0.00504        0.60855
B          1.15694        0.84846        1.06462
B         -4.38195       -2.46087       -0.75830
B          5.07847       -1.70987       -0.85664
B          5.19758       -0.01440       -0.52140
B          5.09255        1.68155       -0.85037
B          6.09925        0.74349       -1.60713
B          6.09313       -0.77824       -1.60899
B         -1.73726        0.83927        0.83758
B          2.60968       -0.00525        0.74351
B         -0.34848       -1.83048        1.10882
B         -5.44368       -1.53689       -1.31423
B         -5.62194        0.01103       -1.30262
B         -5.41083        1.55372       -1.32706
B         -0.34281        0.00104        1.10981
