45
isomer_2485.log	Energy: -111986.8876306
B          2.50417        1.75581       -0.53989
B          2.48473        3.39176       -0.15147
B          1.07342        4.20607        0.11670
B         -0.38290        3.36149       -0.41566
B          1.04951        0.85038       -0.82812
B         -1.82632        0.85065       -0.87002
B         -1.77059        4.12920        0.29797
B          3.97265        0.89645       -0.49270
B         -1.75508        2.45295       -0.30258
B          3.90263        2.58548       -0.02656
B         -0.35067        4.80679        0.41926
B         -3.19336        3.26742        0.32969
B         -3.21179        1.64857       -0.24446
B         -4.65542        0.81835        0.27006
B         -0.36712       -1.69029       -0.97097
B         -1.73286       -2.40266       -0.32752
B         -3.19687       -1.61229       -0.26122
B         -4.64801       -0.80065        0.26175
B         -4.46960       -2.35872        0.49640
B         -3.16359       -3.23671        0.29627
B         -1.73299       -4.08507        0.25578
B         -0.35243       -3.29739       -0.44987
B         -0.30693       -4.75083        0.37017
B          2.51538       -3.30413       -0.18587
B          1.11160       -4.13403        0.07386
B          2.51982       -1.66416       -0.55746
B          3.92585       -2.48623       -0.05261
B          3.98038       -0.79192       -0.50138
B          1.09118       -2.49425       -0.70266
B          1.06798        2.57424       -0.67662
B         -3.29413        0.11976       -0.64765
B          1.05692       -0.76917       -0.83644
B         -4.49127        2.37550        0.52072
B          5.23806        1.78436        0.45323
B          5.23910        0.15441        0.21100
B          5.25391       -1.67789        0.43545
B          6.42385       -0.72073        1.02484
B          6.41674        0.83195        1.03282
B         -1.81879       -0.79534       -0.87847
B          2.93381       -0.26763        2.44989
B         -0.38291        1.75976       -0.95325
B         -5.99318        1.65637        0.75407
B         -6.17939       -0.05807        0.81322
B         -5.97363       -1.78711        0.80693
B          1.48815       -1.09244        0.18337
