45
isomer_2486.log	Energy: -113352.9897299
B          2.49995       -1.67118        0.45868
B          2.43214       -2.93835       -0.87165
B          1.13013       -3.85350       -0.84234
B         -0.08982       -3.08543        0.33795
B          1.21208       -0.57288        0.94160
B         -1.74929       -0.64243        0.77353
B         -1.59154       -3.97926       -0.12914
B          3.81273       -0.67382        0.12379
B         -1.68778       -2.34309        0.54113
B          3.80046       -2.16574       -0.59876
B         -0.28765       -4.44417       -0.63851
B         -2.99192       -3.22754       -0.02716
B         -3.16077       -1.64312        0.46236
B         -4.63505       -0.82575        0.24122
B         -0.39399        1.83212        1.06788
B         -1.80957        2.56301        0.39255
B         -3.19621        1.74548        0.20649
B         -4.54387        0.79221       -0.21642
B         -4.49579        2.44476       -0.73063
B         -3.11694        3.25433       -0.43181
B         -1.70115        4.05639       -0.53076
B         -0.34836        3.39913        0.30513
B         -0.28982        4.64651       -0.67729
B          2.46979        3.37834       -0.02016
B          1.10091        4.10375       -0.29525
B          2.48642        1.72023        0.58952
B          3.78004        2.59004       -0.06509
B          3.87866        0.98938        0.33804
B          1.09288        2.59815        0.69546
B          1.67879       -3.33353        0.67047
B         -3.29932        0.10282        0.71853
B          1.02705        1.00262        1.03451
B         -4.41105       -2.44739       -0.35958
B          5.16425       -1.40670       -0.70639
B          5.26896        0.14390        0.02925
B          5.22221        1.80099       -0.36298
B          6.37320        1.01796       -0.91720
B          6.27468       -0.42747       -1.16183
B         -1.80688        0.94978        0.99112
B          1.09280       -2.12722        1.48782
B         -0.28068       -1.35410        0.61024
B         -5.47356       -1.54021       -0.94186
B         -5.80655       -0.03210       -0.99547
B         -5.66062        1.51169       -1.09488
B          1.03005       -1.90863       -0.40210
