45
isomer_2487.log	Energy: -113362.1713286
B         -2.68329        1.63646        0.54390
B         -2.65456        3.20337       -0.17912
B         -1.28321        4.03157       -0.39920
B          0.16888        3.32519        0.21247
B         -1.29520        0.76984        0.88016
B          1.67684        0.86696        0.70172
B          1.55231        4.13537       -0.46954
B         -4.04320        0.79630        0.31196
B          1.64312        2.54544        0.30563
B         -4.03904        2.40672       -0.11875
B          0.12130        4.65117       -0.66368
B          2.97306        3.34971       -0.33521
B          3.10436        1.81278        0.23720
B          4.57211        0.94842        0.18313
B          0.30821       -1.66253        1.29823
B          1.69809       -2.69356        0.73670
B          3.06307       -1.70919        0.33432
B          4.46633       -0.69720       -0.07936
B          4.51175       -2.34499       -0.46699
B          3.09959       -3.11815       -0.35449
B          1.74532       -3.42457       -1.00250
B          0.30330       -3.43226       -0.04434
B          0.35808       -3.57428       -1.64629
B         -2.41882       -2.99690       -0.48569
B         -1.01889       -3.38376       -1.09668
B         -2.54573       -1.70934        0.55181
B         -3.79324       -2.33521       -0.38774
B         -3.99999       -0.89855        0.34511
B         -1.12047       -2.68502        0.71839
B         -1.28691        2.44602        0.32306
B          3.19861        0.08250        0.64520
B         -1.22902       -0.82362        0.95437
B          4.40710        2.57198       -0.53292
B         -5.39241        1.61301       -0.40700
B         -5.42055       -0.05465        0.07704
B         -5.28641       -1.61854       -0.52492
B         -6.46922       -0.80988       -1.00514
B         -6.44065        0.66894       -1.01643
B          1.71784       -0.76540        0.98503
B          0.21059        0.00701        1.06727
B          0.21956        1.74981        0.76486
B          5.53967        1.64460       -0.89379
B          5.80779        0.11698       -0.82141
B          5.68098       -1.43697       -0.79888
B          0.27295       -3.20557        1.55252
