45
isomer_2488.log	Energy: -113340.3533521
B          2.27001        1.95172       -0.56006
B          1.94349        3.61979        0.19411
B          0.50940        4.21207        0.22870
B         -0.80727        3.30687       -0.41482
B          0.95803        1.04388       -1.01197
B         -1.88104        0.66019       -0.89042
B         -2.29771        3.93526        0.08485
B          3.77330        1.47087       -0.31388
B         -2.12421        2.28523       -0.62219
B          3.27392        2.90246        0.45876
B         -0.99874        4.67768        0.35428
B         -3.58423        2.95003       -0.01967
B         -3.46964        1.36204       -0.47425
B         -4.76904        0.28505       -0.19122
B         -0.11861       -1.54273       -1.11844
B         -1.29655       -2.42592       -0.17971
B         -2.83471       -1.91323       -0.08235
B         -4.30351       -1.21732        0.34203
B         -3.91493       -2.76714        0.97706
B         -2.40502       -3.34490        0.67306
B         -0.90425       -3.88999        0.66577
B          0.27417       -3.04855       -0.43751
B          0.54902       -4.26580        0.60133
B          2.98745       -2.86944       -0.82124
B          1.80861       -3.66849       -0.11672
B          2.78726       -1.17791       -1.26460
B          4.26527       -1.95218       -0.57365
B          3.88707       -0.15709       -0.61716
B          1.42071       -2.22988       -1.51096
B          0.76177        2.62608       -0.45930
B         -3.29971       -0.35954       -0.71121
B          1.23558       -0.53264       -1.08550
B         -4.80524        1.98596        0.35669
B          4.47837        2.12165        1.18246
B          4.83108        0.57357        0.57378
B          4.81907       -1.17920        0.71183
B          5.55589       -0.27393        1.76794
B          5.46818        1.19905        1.93821
B         -1.64076       -0.92928       -0.93565
B          3.09431       -1.38421        0.55920
B         -0.56513        1.64242       -0.92419
B         -5.69226        0.91308        0.98659
B         -5.69653       -0.60559        1.13169
B         -5.21454       -2.08480        1.34542
B          1.67164       -1.90519        0.20292
