45
isomer_2489.log	Energy: -113701.6351600
B         -2.13012       -1.93982       -0.64078
B         -1.45232       -2.77734        0.95275
B         -0.13665       -3.71927        0.81698
B          1.05855       -3.30911       -0.36500
B         -0.77356       -1.42688       -1.56505
B          1.92844       -0.66150       -1.07396
B          2.58802       -3.59797        0.38655
B         -3.50867       -1.07336       -0.35704
B          2.37181       -2.28497       -0.78399
B         -2.39955       -1.54016        1.11889
B          1.31722       -4.20876        0.93363
B          3.83879       -2.62862        0.06793
B          3.48764       -1.12855       -0.36208
B          4.53569        0.12860        0.15212
B         -0.25212        1.30445       -0.82450
B          0.91498        2.51461       -0.47684
B          2.51479        2.16910       -0.25238
B          4.18159        1.75137       -0.14952
B          3.52727        3.22108        0.58289
B          1.97319        3.62935        0.22737
B          0.37787        4.02549        0.24536
B         -0.71107        2.85399       -0.46611
B         -1.12006        4.15665        0.39802
B         -3.36324        2.02185        0.10135
B         -2.31332        3.19776        0.15911
B         -3.15529        0.58471       -0.86285
B         -4.42150        0.86274        0.55020
B         -4.64731        0.11313       -1.18126
B         -1.89893        1.62634       -0.51792
B         -0.61094       -2.78334       -0.52507
B          3.11626        0.56402       -0.68642
B         -1.53653       -0.11214       -0.86586
B          4.97325       -1.50364        0.46021
B         -3.81041       -0.80389        1.42186
B         -5.07779       -0.83079        0.21501
B         -5.96589        0.52141       -0.47631
B         -6.17902        0.41761        0.97606
B         -5.12621       -0.19226        1.86459
B          1.40573        0.86679       -0.69509
B         -0.84360       -1.19076        0.45372
B          0.81181       -1.90832       -1.42411
B          5.84645       -0.32748        0.91917
B          5.55415        1.20793        0.97155
B          4.83936        2.58812        1.03936
B          0.27124       -0.37818       -0.46253
