45
isomer_0249.log	Energy: -113435.9940325
B         -2.59088       -1.80908       -0.55216
B         -2.25457       -3.21397        0.21426
B         -0.72699       -3.79610        0.30784
B          0.61904       -3.11591       -0.62895
B         -1.29234       -0.82526       -1.23660
B          1.93140       -0.83529       -1.03637
B          2.06885       -3.79964        0.42933
B         -4.02764       -1.02520       -0.17244
B          2.35381       -2.68914       -0.83336
B         -3.73622       -2.58359        0.43346
B          0.65362       -4.23648        0.58047
B          3.48163       -3.10062        0.33017
B          3.31724       -1.52607       -0.14162
B          4.50241       -0.50114        0.55053
B          0.18310        1.58904       -0.85994
B          1.54459        2.48545       -0.46812
B          3.02523        1.83734       -0.21208
B          4.49005        1.14821        0.17999
B          4.12324        2.74237        0.75325
B          2.78827        3.44277        0.15579
B          1.41415        4.20519        0.06086
B          0.07265        3.28097       -0.52883
B         -0.01554        4.75583        0.10321
B         -2.73055        3.16858       -0.06541
B         -1.36538        4.07232       -0.06963
B         -2.77649        1.63559       -0.62884
B         -4.06946        2.33154        0.24269
B         -4.16308        0.70057       -0.22806
B         -1.33250        2.40935       -0.64786
B         -1.05240       -2.40673       -0.60914
B          3.22121        0.15133       -0.47031
B         -1.28158        0.75265       -1.07264
B          4.65787       -2.16975        0.87170
B         -5.04605       -1.89034        1.00639
B         -5.31262       -0.23351        0.57190
B         -5.26540        1.47428        0.84139
B         -6.17824        0.50066        1.70385
B         -6.09589       -1.01099        1.74361
B          1.61413        0.72604       -0.70209
B         -2.74617       -0.06709       -0.85739
B          1.37718       -2.21741       -1.93289
B          5.65712       -1.14564        1.42366
B          5.61274        0.40451        1.45260
B          5.16696        1.88281        1.44244
B          0.18352       -1.49841       -1.44465
