45
isomer_2490.log	Energy: -112721.7892452
B          2.59534       -1.62193        0.42805
B          2.58145       -3.26589        0.02764
B          1.18151       -4.09985       -0.22319
B         -0.28347       -3.29343        0.33218
B          1.14287       -0.72256        0.73864
B         -1.76561       -0.80680        0.81549
B         -1.66482       -4.07608       -0.36870
B          4.02768       -0.74771        0.35266
B         -1.68276       -2.40939        0.23885
B          3.97949       -2.43303       -0.11693
B         -0.23535       -4.71723       -0.50772
B         -3.10307       -3.24226       -0.38037
B         -3.14310       -1.62748        0.19980
B         -4.60333       -0.81226       -0.29209
B         -0.33192        1.75924        0.90027
B         -1.72280        2.44851        0.27998
B         -3.17425        1.63639        0.23056
B         -4.61550        0.80496       -0.27452
B         -4.46983        2.36926       -0.51204
B         -3.16599        3.26114       -0.32193
B         -1.75397        4.12817       -0.29993
B         -0.35226        3.36546        0.38223
B         -0.34369        4.80663       -0.43234
B          2.50449        3.42005        0.07241
B          1.08619        4.22126       -0.16050
B          2.54507        1.77816        0.44375
B          3.91803        2.62203       -0.08208
B          4.00735        0.93921        0.36354
B          1.11017        2.58593        0.61117
B          1.17033       -2.47769        0.58164
B         -3.24340       -0.09410        0.61075
B          1.11208        0.86887        0.74375
B         -4.42894       -2.37286       -0.55654
B          5.28413       -1.61064       -0.61896
B          5.26115        0.02066       -0.37195
B          5.24092        1.83987       -0.59154
B          6.40432        0.90876       -1.20129
B          6.42923       -0.63630       -1.21630
B         -1.77878        0.83967        0.82749
B          1.98267       -0.67388       -0.78638
B         -0.31672       -1.69071        0.88405
B         -5.92120       -1.65467       -0.76253
B         -6.12641        0.04290       -0.80872
B         -5.94580        1.74629       -0.79739
B          0.60854       -1.32670        1.61902
