45
isomer_2493.log	Energy: -112674.5938602
B         -2.60862        1.70849        0.40509
B         -2.59200        3.34875        0.03515
B         -1.18096        4.17446       -0.19715
B          0.27024        3.33277        0.35348
B         -1.15408        0.80867        0.71095
B          1.72038        0.82576        0.80753
B          1.66640        4.11671       -0.32514
B         -4.07057        0.84090        0.32053
B          1.64995        2.43382        0.25652
B         -4.00224        2.53540       -0.12557
B          0.24485        4.78705       -0.46594
B          3.09485        3.26390       -0.33927
B          3.11247        1.63891        0.21726
B          4.57073        0.82315       -0.27883
B          0.27537       -1.72487        0.85274
B          1.65746       -2.42182        0.22757
B          3.11751       -1.62198        0.19782
B          4.57323       -0.79586       -0.28848
B          4.40900       -2.35227       -0.54362
B          3.10491       -3.24027       -0.37805
B          1.67911       -4.09760       -0.37411
B          0.28054       -3.32613        0.31378
B          0.25963       -4.77061       -0.52292
B         -2.58165       -3.34717       -0.00477
B         -1.16806       -4.16568       -0.24687
B         -2.60333       -1.71149        0.38470
B         -3.99439       -2.53633       -0.15581
B         -4.06796       -0.84749        0.31047
B         -1.17256       -2.53455        0.54790
B         -1.18040        2.53396        0.57812
B          3.19665        0.10622        0.60508
B         -1.15158       -0.81089        0.70130
B          4.40167        2.38198       -0.51540
B         -5.32332        1.73166       -0.63946
B         -5.31882        0.09913       -0.41526
B         -5.31797       -1.73061       -0.66010
B         -6.48246       -0.77401       -1.26107
B         -6.48486        0.77869       -1.25181
B          1.72293       -0.82024        0.79772
B         -0.94971       -0.86210        1.96844
B          0.27003        1.72519        0.87330
B          5.91218        1.67453       -0.72805
B          6.11013       -0.03800       -0.80252
B          5.91505       -1.76821       -0.81919
B          0.19029        0.62809       -0.12609
