45
isomer_2494.log	Energy: -111242.2815551
B          2.61308        1.82009       -0.43768
B          2.58219        3.45986       -0.06058
B          1.16508        4.27308        0.18007
B         -0.28158        3.43251       -0.36384
B          1.17090        0.91042       -0.73960
B         -1.72747        0.92587       -0.81553
B         -1.67769        4.20627        0.32604
B          4.07984        0.96818       -0.36032
B         -1.65929        2.52937       -0.26044
B          3.99359        2.65765        0.08915
B         -0.25830        4.87526        0.45827
B         -3.10019        3.35058        0.34875
B         -3.11573        1.72809       -0.21175
B         -4.56636        0.90293        0.29105
B         -0.22640       -1.62775       -0.88003
B         -1.63411       -2.33413       -0.24414
B         -3.10045       -1.53655       -0.20360
B         -4.55634       -0.71538        0.29479
B         -4.38308       -2.27684        0.54617
B         -3.06661       -3.16012        0.36900
B         -1.63634       -4.01600        0.35879
B         -0.24683       -3.24046       -0.33516
B         -0.20143       -4.69523        0.50668
B          2.65334       -3.23949       -0.02516
B          1.25381       -4.10436        0.23319
B          2.65252       -1.59424       -0.41993
B          4.04693       -2.40639        0.11398
B          4.09774       -0.72008       -0.35115
B          1.23615       -2.42531       -0.57745
B          1.18003        2.63763       -0.59995
B         -3.19377        0.19597       -0.60401
B          1.19913       -0.70730       -0.73018
B         -4.40745        2.46550        0.53404
B          5.32323        1.86792        0.59537
B          5.33554        0.23554        0.36833
B          5.35769       -1.58356        0.61119
B          6.50564       -0.61978        1.20690
B          6.49363        0.92996        1.20128
B         -1.72068       -0.71186       -0.81319
B          0.75626       -3.32531        0.06036
B         -0.27343        1.82610       -0.89079
B         -5.90051        1.73736        0.75142
B         -6.08497        0.03434        0.82106
B         -5.87847       -1.68390        0.83003
B         -0.79880       -1.24640       -1.17141
