45
isomer_2496.log	Energy: -113413.5181011
B         -2.52012        1.69344        0.57910
B         -2.44133        3.39287       -0.08898
B         -1.07375        4.13883       -0.35799
B          0.40152        3.36655        0.19968
B         -1.09500        0.91650        0.81833
B          1.79550        0.85750        0.78844
B          1.79027        4.09072       -0.53201
B         -3.83217        0.97526        0.28512
B          1.83283        2.50584        0.31404
B         -3.81026        2.64461       -0.00430
B          0.38358        4.67631       -0.68989
B          3.18875        3.24632       -0.37652
B          3.24905        1.70649        0.25229
B          4.68058        0.75684        0.12239
B          0.29767       -1.67200        1.28676
B          1.59569       -2.47906        0.53448
B          3.06628       -1.72202        0.39507
B          4.44336       -0.88115       -0.12937
B          4.33029       -2.52481       -0.56473
B          2.86416       -3.21161       -0.21360
B          1.40506       -3.88988       -0.39009
B         -0.06544       -3.20903        0.28385
B          0.07604       -4.39298       -0.84424
B         -2.69502       -3.14527       -0.81382
B         -1.36757       -3.98067       -0.90864
B         -2.46500       -1.68851        0.39994
B         -3.77630       -2.11036       -0.60056
B         -3.86343       -0.73747        0.20886
B         -1.82511       -3.37306        0.53602
B         -1.11469        2.60473        0.44453
B          3.30746       -0.01994        0.75603
B         -1.19306       -0.65838        0.83059
B          4.51926        2.37583       -0.64767
B         -5.18213        1.91176       -0.36273
B         -5.23722        0.20618       -0.02969
B         -5.23604       -1.32708       -0.65940
B         -6.37730       -0.44324       -1.08463
B         -6.24705        1.03305       -1.04059
B          1.73949       -0.78551        1.11000
B          0.34721        0.14893        1.02970
B          0.39306        1.83011        0.83532
B          5.56722        1.35987       -1.07871
B          5.74952       -0.16507       -1.01857
B          5.51306       -1.70818       -0.99577
B         -1.11892       -2.31326        1.42198
