45
isomer_2498.log	Energy: -110361.6300374
B         -2.52489       -1.70776       -0.49017
B         -2.51377       -3.34342       -0.10018
B         -1.10617       -4.16684        0.15951
B          0.35219       -3.33251       -0.38334
B         -1.06618       -0.81233       -0.78895
B          1.80925       -0.83181       -0.84985
B          1.73943       -4.10874        0.32191
B         -3.98727       -0.83859       -0.43418
B          1.73111       -2.43303       -0.28028
B         -3.92542       -2.52758        0.03326
B          0.31586       -4.77673        0.45328
B          3.16808       -3.25643        0.34332
B          3.19349       -1.63832       -0.23263
B          4.64599       -0.81722        0.27148
B          0.36636        1.71870       -0.94381
B          1.74104        2.42260       -0.31015
B          3.20016        1.62256       -0.25269
B          4.64930        0.80179        0.26152
B          4.48282        2.36125        0.49572
B          3.18138        3.24772        0.30332
B          1.75623        4.10555        0.27138
B          0.36581        3.32638       -0.42430
B          0.33541        4.78092        0.39450
B         -2.50008        3.35249       -0.14136
B         -1.08911        4.17328        0.10822
B         -2.51789        1.71221       -0.51120
B         -3.91504        2.54414        0.00207
B         -3.98382        0.84979       -0.44456
B         -1.08475        2.53263       -0.66671
B         -1.09511       -2.53588       -0.63553
B          3.28333       -0.11049       -0.63795
B         -1.06286        0.80722       -0.79891
B          4.47314       -2.37299        0.52484
B         -5.25228       -1.71711        0.52102
B         -5.24407       -0.08742        0.27711
B         -5.24520        1.74516        0.49973
B         -6.41756        0.79641        1.09784
B         -6.42073       -0.75628        1.10739
B          1.81262        0.81419       -0.85997
B         -2.76468        0.57676        1.74550
B          0.35930       -1.73136       -0.92259
B          5.98131       -1.66365        0.74751
B          6.17931        0.04957        0.80364
B          5.98503        1.77994        0.79691
B         -1.39106       -0.55475       -0.43168
