45
isomer_2499.log	Energy: -113431.2149179
B         -2.55335        1.67589        0.51541
B         -2.52716        3.40680       -0.04415
B         -1.16770        4.16898       -0.10089
B          0.27579        3.42541        0.55033
B         -1.22395        0.87354        0.85715
B          1.74407        0.88846        0.95957
B          1.68251        4.17060       -0.17652
B         -3.91536        0.93866        0.16191
B          1.72268        2.53856        0.46221
B         -3.81940        2.56102       -0.24116
B          0.26503        4.75870       -0.31510
B          3.04561        3.31958       -0.21177
B          3.13894        1.73967        0.30533
B          4.46433        0.80237       -0.22803
B          0.29397       -1.80568        1.52545
B          1.52255       -2.41122        0.18369
B          3.04423       -1.71043        0.14225
B          4.50188       -0.87909       -0.12893
B          4.24159       -2.48703       -0.79198
B          2.90038       -3.27862       -0.37200
B          1.54573       -4.13729       -0.23933
B          0.21133       -3.32361        0.63054
B          0.15192       -4.71568       -0.22610
B         -2.60084       -3.31619        0.00569
B         -1.24416       -4.12524       -0.00551
B         -2.62790       -1.63488        0.54181
B         -3.87841       -2.44158       -0.21704
B         -3.94613       -0.82120        0.18132
B         -1.20816       -2.44327        0.55762
B         -1.19963        2.55233        0.57949
B          3.20562       -0.01490        0.56875
B         -1.22837       -0.77941        0.91660
B          4.37607        2.46857       -0.67045
B         -5.13379        1.73643       -0.75323
B         -5.15850        0.07417       -0.43694
B         -5.20452       -1.57467       -0.73923
B         -6.23727       -0.66330       -1.42621
B         -6.19934        0.83839       -1.44101
B          1.63635       -0.81125        0.71499
B          0.21953        0.00234        1.22822
B          0.30706        1.77934        0.97134
B          5.47436        1.54740       -1.18616
B          5.61333       -0.02532       -1.21998
B          5.37183       -1.55928       -1.27110
B          0.11725       -1.30812       -0.11688
