45
isomer_0025.log	Energy: -113300.5323279
B         -2.64724        1.71277        0.55023
B         -2.55706        3.33339        0.06993
B         -1.21184        4.16220       -0.08135
B          0.25373        3.43173        0.55318
B         -1.21798        0.86936        0.98145
B          1.74186        0.88004        0.97365
B          1.58799        4.19377       -0.23631
B         -4.02507        0.87738        0.29371
B          1.70277        2.58692        0.55107
B         -3.93475        2.46727       -0.19877
B          0.18351        4.75787       -0.34813
B          2.97493        3.34652       -0.25425
B          3.11874        1.80610        0.28315
B          4.48180        0.89799       -0.23078
B          0.28505       -1.56759        1.41646
B          1.67143       -2.55724        0.62850
B          3.04036       -1.68659        0.21459
B          4.34962       -0.72557       -0.38167
B          4.20514       -2.30971       -0.94655
B          2.82863       -3.11051       -0.48774
B          1.52281       -3.99206       -0.61530
B          0.31690       -3.73396        0.60142
B          0.18013       -4.56723       -0.79017
B         -2.43258       -3.15467       -0.02827
B         -1.15440       -4.00272       -0.29779
B         -2.54913       -1.59056        0.54828
B         -3.75795       -2.27383       -0.42999
B         -3.97859       -0.79288        0.24238
B         -1.16142       -2.56086        0.82105
B         -1.24923        2.58284        0.70506
B          3.24043        0.07286        0.54947
B         -1.20809       -0.70524        0.99241
B          4.30915        2.54523       -0.72750
B         -5.15802        1.72755       -0.82335
B         -5.20189        0.05295       -0.57103
B         -5.03765       -1.60093       -0.97464
B         -6.14321       -0.69143       -1.65481
B         -6.18175        0.79175       -1.60522
B          1.74506       -0.75380        0.99321
B          0.33042       -2.96200        1.88022
B          0.28274        1.86072        1.09336
B          5.36067        1.63962       -1.34887
B          5.53321        0.10404       -1.42046
B          5.30453       -1.44316       -1.47292
B          0.25622        0.08167        0.98310
