45
isomer_0250.log	Energy: -113362.3339327
B         -2.50947        1.77178        0.58510
B         -2.44558        3.46853       -0.04487
B         -1.04022        4.18756       -0.23006
B          0.40562        3.43138        0.41483
B         -1.16081        0.99266        0.96016
B          1.71531        0.83586        0.77620
B          1.79760        4.15585       -0.39437
B         -3.85486        1.00359        0.24875
B          1.80327        2.54778        0.39850
B         -3.75902        2.61593       -0.18916
B          0.40277        4.71423       -0.55343
B          3.15129        3.26588       -0.31365
B          3.17272        1.67918        0.24266
B          4.59002        0.75899       -0.02380
B          0.13985       -1.80589        1.15498
B          1.61430       -2.54638        0.51371
B          3.01457       -1.71522        0.26983
B          4.42796       -0.88155       -0.18360
B          4.32812       -2.51875       -0.66179
B          2.89287       -3.22683       -0.32041
B          1.51122       -4.04619       -0.47132
B          0.13297       -3.30973        0.16889
B          0.14316       -4.62093       -0.74989
B         -2.66355       -3.28435       -0.38219
B         -1.30444       -4.06033       -0.54586
B         -2.70098       -1.76034        0.83264
B         -3.83442       -2.34515       -0.38242
B         -3.88994       -0.79715        0.21498
B         -1.37025       -2.73130        0.50554
B         -1.11945        2.65804        0.52347
B          3.21863       -0.03873        0.61484
B         -1.37769       -0.56514        1.16982
B          4.45533        2.38901       -0.66551
B         -5.06584        1.82965       -0.69563
B         -5.07350        0.16167       -0.39987
B         -5.08420       -1.43535       -0.84767
B         -6.08931       -0.49183       -1.53554
B         -6.09216        0.97995       -1.43931
B          1.61797       -0.83116        0.97120
B         -1.43390       -1.92136        1.89605
B          0.38049        1.85298        0.93580
B          5.51978        1.40647       -1.14362
B          5.70672       -0.12653       -1.09981
B          5.49285       -1.67817       -1.08142
B          0.23420        0.03139        0.95724
