45
isomer_2500.log	Energy: -113362.5578287
B          2.54799       -1.69758        0.54617
B          2.43060       -2.99298       -0.47762
B          1.03412       -3.38323       -1.09427
B         -0.29589       -3.42866       -0.04788
B          1.22891       -0.81317        0.94318
B         -1.71634       -0.76160        0.98716
B         -1.73527       -3.41968       -1.00867
B          4.00052       -0.88222        0.34427
B         -1.69140       -2.68550        0.73482
B          3.81079       -2.33007       -0.37055
B         -0.34248       -3.57555       -1.64677
B         -3.09000       -3.11749       -0.35709
B         -3.06119       -1.71163        0.33544
B         -4.46960       -0.71032       -0.07520
B         -0.22703        1.76161        0.79141
B         -1.65635        2.54941        0.31359
B         -3.11476        1.80550        0.24811
B         -4.57481        0.93694        0.16837
B         -4.42109        2.55563       -0.54384
B         -2.98723        3.34004       -0.33720
B         -1.56726        4.12293       -0.48210
B         -0.17683        3.33491        0.23936
B         -0.13554        4.63816       -0.67500
B          2.64542        3.19507       -0.19369
B          1.26797        4.02660       -0.40641
B          2.67825        1.62679        0.52604
B          4.03463        2.40314       -0.14506
B          4.04712        0.79946        0.30130
B          1.28331        2.45004        0.33250
B          1.12426       -2.67578        0.71011
B         -3.19889        0.07719        0.64378
B          1.28713        0.77746        0.88865
B         -4.50797       -2.35661       -0.46614
B          5.30187       -1.60876       -0.51083
B          5.43249       -0.04615        0.08790
B          5.39266        1.61795       -0.41637
B          6.44409        0.66974       -1.01686
B          6.48844       -0.80737       -0.98711
B         -1.67655        0.87389        0.71709
B         -0.26352       -3.19098        1.55261
B         -0.30124       -1.65452        1.27837
B         -5.68635       -1.45554       -0.78378
B         -5.81595        0.09803       -0.81718
B         -5.55151        1.62708       -0.90505
B         -0.21553        0.01779        1.07443
