45
isomer_2503.log	Energy: -113665.7998406
B          2.57124        1.76170       -0.51156
B          2.53274        3.33180        0.05855
B          1.16810        4.17577        0.13203
B         -0.25695        3.41948       -0.50773
B          1.19994        0.89673       -1.00618
B         -1.73309        0.83873       -0.74679
B         -1.64420        4.16590        0.28323
B          3.97493        0.85857       -0.21290
B         -1.72925        2.56552       -0.43038
B          3.86242        2.48570        0.32930
B         -0.21062        4.75130        0.38599
B         -3.02179        3.34660        0.25742
B         -3.13910        1.72061       -0.23189
B         -4.58055        0.89894        0.06926
B         -0.36897       -1.82522       -1.09241
B         -1.81895       -2.54755       -0.48981
B         -3.18768       -1.66970       -0.28203
B         -4.55278       -0.80767        0.20912
B         -4.45970       -2.47710        0.68564
B         -3.11681       -3.29380        0.23968
B         -1.74500       -4.12601        0.29780
B         -0.34254       -3.36232       -0.40393
B         -0.32305       -4.71702        0.43376
B          2.48085       -3.35282        0.00000
B          1.06685       -4.15827        0.13329
B          2.46758       -1.77982       -0.51199
B          3.80762       -2.54480        0.23670
B          3.95408       -0.90988       -0.28603
B          1.11883       -2.57675       -0.75930
B          1.20413        2.61226       -0.77772
B         -3.30700       -0.00266       -0.63667
B          1.12101       -0.83662       -0.99386
B         -4.35999        2.50665        0.69963
B          5.10811        1.63140        0.86445
B          5.18943       -0.05996        0.48649
B          5.06437       -1.75672        0.78785
B          6.13554       -0.86081        1.49241
B          6.13467        0.66663        1.56037
B         -1.79650       -0.85847       -0.93943
B          2.63082       -0.02328       -0.74483
B         -0.29940        1.85613       -1.06870
B         -5.35718        1.55747        1.30466
B         -5.61414        0.02168        1.28572
B         -5.49355       -1.54006        1.26863
B         -0.33445        0.01773       -0.86786
