45
isomer_2504.log	Energy: -113251.8969568
B         -1.96245        2.01789        0.49987
B         -1.58970        3.72029       -0.23974
B         -0.13897        4.31133       -0.11176
B          1.10860        3.44319        0.71160
B         -0.75116        1.29624        1.17249
B          1.80919        0.61728        0.97261
B          2.63876        3.88806        0.10128
B         -3.28995        1.47905       -0.09963
B          2.33788        2.26465        0.89171
B         -2.91870        3.05166       -0.55520
B          1.38632        4.70245       -0.18908
B          3.77367        2.75247        0.15180
B          3.45487        1.14536        0.43644
B          4.54194       -0.00774       -0.11729
B          0.08321       -1.66027        1.67256
B          0.72957       -2.33888        0.05527
B          2.35036       -2.01345       -0.17701
B          3.93865       -1.48441       -0.59564
B          3.27681       -2.89584       -1.33989
B          1.87110       -3.43566       -0.77089
B          0.55866       -4.16827       -0.31915
B         -0.64128       -3.16223        0.44314
B         -0.77275       -4.75697        0.04756
B         -3.19921       -2.95099        0.24796
B         -2.10926       -4.06310        0.36464
B         -2.61551       -1.28421        0.64663
B         -4.12955       -1.78921       -0.13381
B         -3.65346       -0.22220        0.00035
B         -1.96082       -2.70053        1.41814
B         -0.50615        2.84226        0.69003
B          2.98620       -0.53072        0.46709
B         -1.64890        0.05367        0.91927
B          4.81441        1.68589       -0.46094
B         -4.27363        2.48481       -1.19216
B         -4.54323        0.84594       -0.86466
B         -5.05075       -0.75375       -0.93229
B         -5.78797        0.31563       -1.78371
B         -5.43781        1.75685       -1.90036
B          1.31593       -0.95969        0.86808
B         -1.41746       -1.28861        2.02283
B          0.78915        1.82522        1.22733
B          5.55376        0.58332       -1.21787
B          5.28479       -0.90642       -1.51495
B          4.61210       -2.29316       -1.78326
B         -0.81727       -1.41720        0.27060
