45
isomer_2506.log	Energy: -113469.5044218
B         -2.59191       -1.46949       -0.49843
B         -2.65770       -3.16831       -0.17570
B         -1.32105       -3.92483        0.17033
B          0.05983       -2.90776        0.35433
B         -1.23318       -0.70006       -0.77296
B          1.68858       -0.84652       -1.02607
B          1.44284       -4.04573        0.53730
B         -4.01978       -0.70220       -0.30240
B          1.57328       -2.47634       -0.30899
B         -4.00401       -2.30047       -0.01893
B          0.06017       -4.56753        0.54267
B          2.84474       -3.28440        0.38162
B          3.01988       -1.76575       -0.28217
B          4.40935       -0.90775        0.20308
B          0.38841        1.81404       -0.92401
B          1.84923        2.50279       -0.54080
B          3.24634        1.66513       -0.34267
B          4.66031        0.69934       -0.16412
B          4.53032        2.35941        0.51438
B          3.21469        3.22797        0.22590
B          1.86287        4.09131        0.36177
B          0.43733        3.38030       -0.33224
B          0.47863        4.66533        0.60866
B         -2.36317        3.37405        0.25397
B         -0.97964        4.12067        0.36795
B         -2.48647        1.73720       -0.55951
B         -3.69504        2.56481        0.33084
B         -3.90107        1.04570       -0.23316
B         -1.06232        2.54928       -0.35688
B         -1.28465       -2.58629       -1.14444
B          3.26271       -0.07444       -0.69923
B         -1.13032        0.94734       -0.99268
B          4.31708       -2.55250        0.62650
B         -5.32622       -1.44590        0.45439
B         -5.27482        0.23034        0.15556
B         -5.12599        1.82960        0.68613
B         -6.27523        0.97120        1.23525
B         -6.36885       -0.51438        1.12966
B          1.78105        0.82500       -0.83649
B         -1.31565       -2.05078        0.53757
B          0.15172       -1.76332       -0.98404
B          5.51185       -1.73270        1.01588
B          5.76478       -0.17108        0.97731
B          5.58424        1.34883        0.97885
B          0.27682        0.00892       -1.15395
