45
isomer_2508.log	Energy: -113493.4577422
B         -2.61239       -1.71941       -0.44777
B         -2.58884       -3.37844        0.03657
B         -1.19911       -4.05702        0.25094
B          0.24273       -3.35514       -0.34598
B         -1.31278       -0.82475       -0.81882
B          1.63160       -0.87384       -0.88905
B          1.60071       -4.12352        0.43858
B         -3.96517       -0.79180       -0.40175
B          1.66338       -2.56793       -0.31494
B         -3.99328       -2.46472        0.15946
B          0.19509       -4.69005        0.59550
B          3.01755       -3.27262        0.36906
B          3.08563       -1.74157       -0.21693
B          4.47415       -0.86385        0.18188
B          0.40564        1.72992       -0.83975
B          1.80383        2.49111       -0.31844
B          3.19004        1.64249       -0.31031
B          4.52386        0.77259        0.11241
B          4.58811        2.43853        0.46078
B          3.19908        3.23490        0.26113
B          1.84894        4.16598        0.30820
B          0.42419        3.36914       -0.35818
B          0.44172        4.76227        0.46083
B         -2.39419        3.35921        0.14736
B         -0.95681        4.15772        0.26203
B         -2.48622        1.76055       -0.32551
B         -3.86959        2.56884        0.30958
B         -3.94571        0.95755       -0.40656
B         -1.08541        2.51361       -0.44880
B         -1.18181       -2.44633       -0.54790
B          3.18201       -0.07097       -0.58128
B         -0.96894        0.77224       -0.66984
B          4.44972       -2.51746        0.56253
B         -5.26423       -1.58343        0.59991
B         -5.20269        0.09299        0.30416
B         -5.18156        1.79719        0.62582
B         -6.34340        0.87350        1.15895
B         -6.36027       -0.62069        1.15876
B          1.70618        0.79291       -0.87508
B         -2.53704        0.17914       -0.97221
B          0.32350       -1.79360       -1.05694
B          5.68119       -1.63216        0.85198
B          5.90031       -0.06387        0.79239
B          5.76983        1.53169        0.78261
B          0.10047       -0.51091       -0.04541
