45
isomer_2509.log	Energy: -111121.3083319
B          2.54158        1.76438       -0.47124
B          2.51942        3.40264       -0.09284
B          1.10605        4.21962        0.15565
B         -0.34531        3.37297       -0.38690
B          1.08927        0.85835       -0.76929
B         -1.78596        0.86056       -0.84134
B         -1.73977        4.14600        0.30755
B          4.00877        0.90420       -0.40353
B         -1.71935        2.46618       -0.28278
B          3.93527        2.59604        0.05175
B         -0.32064        4.82322        0.43966
B         -3.16350        3.28551        0.32949
B         -3.17726        1.66328       -0.23514
B         -4.62688        0.83725        0.26918
B         -0.32788       -1.68204       -0.91180
B         -1.70088       -2.38951       -0.27846
B         -3.16485       -1.59765       -0.23223
B         -4.62072       -0.78178        0.27062
B         -4.44607       -2.33856        0.51644
B         -3.13875       -3.21872        0.33528
B         -1.70851       -4.06839        0.31485
B         -0.31997       -3.28601       -0.38098
B         -0.28427       -4.73455        0.44817
B          2.54490       -3.29335       -0.08688
B          1.13779       -4.12061        0.16307
B          2.55459       -1.65564       -0.46820
B          3.95457       -2.47574        0.05627
B          4.01520       -0.78420       -0.40202
B          1.12686       -2.48550       -0.62341
B          1.10757        2.58307       -0.62792
B         -3.25662        0.13214       -0.63001
B          1.09544       -0.76123       -0.76785
B         -4.46408        2.39574        0.51223
B          5.26493        1.79680        0.55030
B          5.26717        0.16542        0.31784
B          5.27811       -1.66551        0.55338
B          6.44259       -0.70574        1.14928
B          6.43668        0.84697        1.14789
B         -1.77970       -0.78545       -0.83988
B          2.40308       -0.49552        1.21311
B         -0.34101        1.76805       -0.91487
B         -5.96895        1.67917        0.73412
B         -6.15718       -0.03474        0.80156
B         -5.95279       -1.76395        0.80777
B          0.68108       -1.44314       -0.79788
