45
isomer_2510.log	Energy: -113374.5419606
B         -2.46833        1.75327        0.54693
B         -2.40997        3.45038       -0.10762
B         -1.03023        4.19651       -0.27675
B          0.40643        3.44941        0.40460
B         -1.12879        1.01340        1.00682
B          1.71549        0.83260        0.76178
B          1.80787        4.14769       -0.41701
B         -3.83822        1.00462        0.21197
B          1.80321        2.54629        0.39145
B         -3.72124        2.60139       -0.22692
B          0.41714        4.71920       -0.57841
B          3.15893        3.25898       -0.31892
B          3.17081        1.67439        0.23122
B          4.59721        0.74301        0.01226
B          0.13283       -1.81159        1.13361
B          1.58523       -2.53064        0.51225
B          3.00639       -1.73032        0.27997
B          4.43017       -0.89430       -0.16446
B          4.30071       -2.52524       -0.64779
B          2.87685       -3.24229       -0.30628
B          1.49632       -4.04592       -0.48481
B          0.11861       -3.30974        0.15848
B          0.13547       -4.59856       -0.79336
B         -2.65042       -3.23197       -0.46355
B         -1.30473       -4.01554       -0.62030
B         -2.66195       -1.71504        0.80280
B         -3.82571       -2.30178       -0.38682
B         -3.88582       -0.77588        0.23974
B         -1.42225       -2.82965        0.56206
B         -1.10067        2.66959        0.53003
B          3.22058       -0.04863        0.63172
B         -1.38061       -0.54653        1.20621
B          4.45982        2.36498       -0.65887
B         -5.05329        1.81972       -0.70171
B         -5.11765        0.16938       -0.32699
B         -5.12361       -1.43155       -0.78699
B         -6.14375       -0.50504       -1.45173
B         -6.10799        0.96903       -1.40713
B          1.61609       -0.82766        0.95469
B         -1.41799       -1.92323        1.88615
B          0.38471        1.89298        0.98215
B          5.52526        1.37942       -1.13268
B          5.71130       -0.15542       -1.08839
B          5.48304       -1.70146       -1.07776
B          0.23279        0.04174        0.97834
