45
isomer_2511.log	Energy: -113314.6347944
B          2.48408        1.79784       -0.53621
B          2.31516        3.44323       -0.00801
B          0.91866        4.18291        0.17629
B         -0.50395        3.43166       -0.51496
B          1.07383        1.00702       -1.03664
B         -1.80096        0.80489       -0.99390
B         -1.90479        4.07042        0.29043
B          3.96033        1.11196       -0.29303
B         -1.90416        2.49247       -0.57149
B          3.66350        2.61579        0.37845
B         -0.52587        4.67801        0.49128
B         -3.24178        3.17426        0.21242
B         -3.26065        1.62239       -0.34438
B         -4.57872        0.64704        0.13835
B         -0.13396       -1.79352       -1.09723
B         -1.56712       -2.47942       -0.29524
B         -2.99737       -1.77740       -0.14048
B         -4.43874       -0.98830        0.22070
B         -4.22632       -2.56200        0.84645
B         -2.72751       -3.23997        0.60500
B         -1.31213       -4.03302        0.59169
B         -0.10040       -3.27373       -0.29758
B          0.12515       -4.60799        0.57337
B          2.69486       -3.08126       -0.22849
B          1.52792       -4.07666        0.20673
B          2.77512       -1.30176       -0.56871
B          4.08870       -2.15904       -0.03416
B          4.15731       -0.52914       -0.41647
B          1.38924       -2.06127       -0.49077
B          1.05884        2.67548       -0.67673
B         -3.25989       -0.11102       -0.58122
B          1.28648       -0.51044       -0.99010
B         -4.57430        2.31831        0.56419
B          4.91722        1.94387        1.00092
B          5.15020        0.31144        0.60765
B          5.23545       -1.39770        0.71666
B          6.15052       -0.44146        1.60225
B          6.04701        1.05142        1.70038
B         -1.65823       -0.87148       -0.95572
B          1.19071       -3.43519       -1.30114
B         -0.45513        1.87435       -1.12216
B         -5.62132        1.35124        1.11627
B         -5.71181       -0.19883        1.17769
B         -5.40196       -1.73558        1.27349
B         -0.30322        0.06019       -0.99585
