45
isomer_2512.log	Energy: -113653.5570354
B         -2.52850       -1.73166       -0.43062
B         -2.51098       -3.30925        0.10565
B         -1.13505       -4.15284        0.20771
B          0.29020       -3.41372       -0.49559
B         -1.14430       -0.85906       -0.95244
B          1.73263       -0.84887       -0.84038
B          1.67539       -4.13581        0.29764
B         -3.94820       -0.86489       -0.18481
B          1.75806       -2.53715       -0.45876
B         -3.88036       -2.48949        0.32679
B          0.26449       -4.71756        0.44250
B          3.03626       -3.32392        0.26718
B          3.15814       -1.72708       -0.25471
B          4.56806       -0.86720        0.08822
B          0.35915        1.82254       -1.06652
B          1.78953        2.52513       -0.43315
B          3.17636        1.70103       -0.25001
B          4.55633        0.82203        0.16057
B          4.45367        2.46239        0.68314
B          3.10173        3.29698        0.27697
B          1.74740        4.13927        0.29684
B          0.34801        3.38495       -0.45933
B          0.33393        4.73681        0.41182
B         -2.44514        3.33110        0.06504
B         -1.05455        4.14786        0.16955
B         -2.49915        1.70794       -0.35391
B         -3.85505        2.53150        0.27554
B         -3.92715        0.85408       -0.14673
B         -1.12945        2.57777       -0.66196
B         -1.16106       -2.59335       -0.67847
B          3.28709       -0.00557       -0.60303
B         -1.10319        0.85415       -0.90917
B          4.39995       -2.48584        0.68378
B         -5.17638       -1.66375        0.77535
B         -5.21626        0.02411        0.47813
B         -5.19953        1.75972        0.66158
B         -6.33257        0.82710        1.27091
B         -6.31703       -0.70739        1.34537
B          1.76102        0.83105       -0.84501
B         -2.60534        0.00591       -0.85878
B          0.30864       -1.87276       -1.07941
B          5.48249       -1.55748        1.20180
B          5.71116       -0.01377        1.16718
B          5.55116        1.53455        1.17826
B          0.31838        0.00044       -0.87469
