45
isomer_2514.log	Energy: -113372.3989819
B          2.67199        1.48833       -0.81598
B          2.70265        3.22939       -0.24112
B          1.39778        4.03574       -0.06543
B         -0.11988        3.30336       -0.49269
B          1.22987        0.75507       -1.14911
B         -1.72164        0.89908       -0.74208
B         -1.41269        4.15270        0.28092
B          4.02261        0.75257       -0.26531
B         -1.62782        2.55390       -0.48114
B          3.94687        2.34414       -0.01298
B          0.02776        4.66802        0.30984
B         -2.82428        3.41325        0.41147
B         -3.04385        1.84794       -0.06396
B         -4.51312        1.03608        0.33032
B         -1.18543       -1.40325       -2.28369
B         -1.80319       -2.40862       -0.96213
B         -3.20893       -1.56415       -0.33810
B         -4.33438       -0.61682        0.57004
B         -4.24367       -2.29043        0.83160
B         -3.02673       -3.08459        0.04361
B         -1.74933       -4.00096        0.06067
B         -0.33694       -3.28054       -0.42090
B         -0.40012       -4.63052        0.40021
B          2.39378       -3.27546        0.49920
B          1.02650       -4.03444        0.42400
B          2.46730       -1.58113       -0.06032
B          3.73632       -2.46734        0.65734
B          3.91286       -0.93920        0.11187
B          1.24627       -2.55030       -0.48858
B          1.31006        2.35308       -0.58816
B         -3.34723        0.18407       -0.55042
B          1.20097       -0.85291       -0.79952
B         -4.10670        2.63737        0.99562
B          5.28212        1.58021        0.55097
B          5.26787       -0.09624        0.41751
B          5.11393       -1.65353        1.07712
B          6.22684       -0.71627        1.59754
B          6.30854        0.75536        1.36317
B         -2.15553       -0.63093       -1.40569
B         -0.33356       -0.10303       -1.37461
B         -0.25143        1.65210       -0.97663
B         -5.08181        1.67785        1.67083
B         -5.36359        0.15028        1.68378
B         -5.23019       -1.41261        1.59616
B         -0.07088       -1.87661       -1.30526
