45
isomer_2515.log	Energy: -109801.2222926
B          2.58501        1.77890       -0.41703
B          2.56203        3.41761       -0.04062
B          1.14789        4.23627        0.19772
B         -0.30075        3.39047       -0.35334
B          1.13377        0.87399       -0.72354
B         -1.74093        0.87899       -0.81436
B         -1.69893        4.16567        0.33111
B          4.05086        0.91733       -0.33877
B         -1.67636        2.48516       -0.25718
B          3.97609        2.60976        0.11412
B         -0.28002        4.84162        0.47174
B         -3.12365        3.30663        0.34473
B         -3.13534        1.68377       -0.21815
B         -4.58906        0.85976        0.27762
B         -0.28498       -1.66515       -0.87245
B         -1.66279       -2.37054       -0.24729
B         -3.12623       -1.57716       -0.21151
B         -4.58454       -0.75927        0.28092
B         -4.41306       -2.31594        0.52962
B         -3.10547       -3.19762        0.35798
B         -1.67598       -4.04874        0.34785
B         -0.28215       -3.26852       -0.33978
B         -0.25331       -4.71617        0.49120
B          2.58074       -3.27840       -0.02698
B          1.17119       -4.10397        0.21471
B          2.59456       -1.64113       -0.41007
B          3.99026       -2.46204        0.12445
B          4.05558       -0.77107       -0.33533
B          1.16705       -2.46974       -0.57366
B          1.15288        2.59884       -0.58399
B         -3.21367        0.15227       -0.61182
B          1.13830       -0.74560       -0.72024
B         -4.42629        2.41836        0.51998
B          5.30166        1.80975        0.62223
B          5.30378        0.17811        0.39163
B          5.31134       -1.65256        0.62928
B          6.47288       -0.69328        1.23169
B          6.46854        0.85943        1.22853
B         -1.73633       -0.76703       -0.81101
B          0.72932       -2.70696       -0.26927
B         -0.29462        1.78495       -0.87947
B         -5.93328        1.70354        0.73284
B         -6.12367       -0.01010        0.80097
B         -5.92107       -1.73951        0.81045
B          0.68874        0.00933       -0.99546
