45
isomer_2518.log	Energy: -113510.9145850
B          2.53392        1.62313       -0.47900
B          2.52400        3.32776       -0.19045
B          1.18359        4.10831        0.02843
B         -0.32543        3.34640       -0.40581
B          1.00940        0.80131       -0.72158
B         -1.76527        0.83819       -0.81905
B         -1.63786        4.09118        0.40041
B          3.96141        0.82919       -0.55275
B         -1.73727        2.45693       -0.21664
B          3.89849        2.47981       -0.05504
B         -0.22722        4.69331        0.41879
B         -3.05672        3.26645        0.41259
B         -3.20329        1.75625       -0.19170
B         -4.56921        0.83440        0.23327
B         -0.41688       -1.59820       -0.96364
B         -1.87397       -2.42712       -0.55544
B         -3.33065       -1.65778       -0.44725
B         -4.74317       -0.77983       -0.15968
B         -4.60365       -2.40750        0.43667
B         -3.22801       -3.22432        0.05897
B         -1.84751       -4.00867        0.20044
B         -0.40481       -3.28755       -0.50304
B         -0.43943       -4.50681        0.54551
B          2.34078       -3.03955        0.29941
B          0.92693       -3.86237        0.38240
B          2.56186       -1.73944       -0.90638
B          3.84495       -2.63858        0.24956
B          3.98174       -0.91928       -0.62814
B          1.05883       -2.45548       -0.68088
B          1.14218        2.54485       -0.70356
B         -3.32898        0.06337       -0.64396
B          1.03008       -0.79314       -0.96558
B         -4.46776        2.47489        0.72341
B          5.14837        1.66853        0.48402
B          5.22010       -0.04572        0.17674
B          4.84797       -1.63030        0.84305
B          5.90812       -0.65065        1.51299
B          6.13864        0.78718        1.24601
B         -1.80963       -0.75514       -0.80134
B          2.95524       -1.34494        0.82946
B         -0.36534        1.67557       -0.86244
B         -5.67889        1.59361        1.07803
B         -5.89671        0.05872        0.99932
B         -5.66837       -1.47202        0.96667
B          2.40941       -0.07494       -0.07284
