45
isomer_2519.log	Energy: -113472.8469081
B         -2.60141        1.58045        0.73291
B         -2.59345        3.28091       -0.04564
B         -1.25718        4.07680       -0.26971
B          0.22123        3.37427        0.28911
B         -1.19537        0.86706        1.08111
B          1.70890        0.90985        0.79370
B          1.58107        4.16821       -0.46330
B         -4.00308        0.86818        0.42760
B          1.67321        2.57260        0.40247
B         -3.87358        2.42163       -0.05987
B          0.16223        4.68620       -0.61116
B          2.98305        3.35946       -0.39836
B          3.10918        1.82557        0.20854
B          4.55490        0.92047        0.01280
B          0.26093       -1.61577        0.58239
B          1.72539       -2.46108        0.44625
B          3.13139       -1.66294        0.45474
B          4.37354       -0.71566       -0.23001
B          4.46807       -2.39152       -0.43706
B          3.08511       -3.24311       -0.09503
B          1.75655       -4.10433       -0.16825
B          0.20646       -3.32236        0.54125
B          0.41586       -4.52019       -0.60735
B         -2.36916       -3.11293       -0.50343
B         -1.00402       -3.85176       -0.58984
B         -2.50861       -1.73387        0.56522
B         -3.75814       -2.33103       -0.46300
B         -3.90242       -0.87227        0.23958
B         -1.27820       -2.76256        1.04084
B         -1.23616        2.48280        0.44231
B          3.21008        0.10951        0.60932
B         -1.21227       -0.76542        0.71935
B          4.35773        2.55870       -0.67765
B         -5.26761        1.64241       -0.42184
B         -5.28839       -0.01545       -0.08432
B         -5.14422       -1.57441       -0.72275
B         -6.26287       -0.66466       -1.26059
B         -6.32951        0.79897       -1.10243
B          1.72698       -0.74788        1.05709
B          0.27485        0.02533        1.24700
B          0.27383        1.80784        0.86774
B          5.47320        1.59534       -1.10263
B          5.73004        0.08194       -0.99901
B          5.58827       -1.50393       -0.90733
B         -0.96639       -2.04132       -0.54077
