45
isomer_2520.log	Energy: -113390.9935815
B          1.96929       -1.40949       -0.01913
B          2.55334       -3.10093        0.34086
B          1.47388       -4.26545        0.36347
B         -0.08344       -3.33251        1.00229
B          0.84760       -0.54315        1.13107
B         -1.10755       -0.64976        0.82144
B         -1.42726       -4.04189       -0.01560
B          3.23025       -0.55030       -0.69761
B         -1.45216       -2.35353        0.56382
B          3.58355       -2.14364       -0.45279
B          0.05688       -4.57776       -0.08013
B         -2.70835       -3.23527       -0.13276
B         -2.87081       -1.58821        0.32961
B         -4.19046       -0.84074       -0.32942
B         -0.35428        1.77858        1.14712
B         -1.71980        2.54526        0.47842
B         -3.11943        1.71721        0.24904
B         -4.41781        0.81724       -0.32225
B         -4.24752        2.43745       -0.88314
B         -3.02744        3.31041       -0.27418
B         -1.71220        4.18257       -0.14449
B         -0.32591        3.48573        0.69162
B         -0.30928        4.85224       -0.12892
B          2.45229        3.52463        0.20798
B          1.06994        4.31287        0.23278
B          2.47333        1.87647        0.71292
B          3.62976        2.67318       -0.22297
B          3.44389        1.00707       -0.20630
B          1.08946        2.64421        1.04409
B          0.94145       -2.92456       -0.45692
B         -3.10620        0.04344        0.57249
B          1.16838        1.03108        1.24847
B         -4.02078       -2.45485       -0.74916
B          4.65275       -1.43555       -1.32162
B          4.75475        0.07435       -0.58177
B          4.96895        1.76814       -0.64125
B          6.07479        0.91261       -1.18092
B          5.84323       -0.48023       -1.67219
B         -1.67704        0.88918        0.87462
B          1.34844       -2.31120        1.31771
B         -0.21496       -1.81514        1.71544
B         -5.11059       -1.63169       -1.38413
B         -5.35673       -0.09724       -1.49564
B         -5.20476        1.43819       -1.55992
B          0.13856       -1.53901       -0.09206
