45
isomer_2522.log	Energy: -112519.6400373
B          2.67693       -1.54385        0.37986
B          2.66706       -3.21201       -0.04343
B          1.25918       -4.04089       -0.31036
B         -0.21929       -3.26512        0.26081
B          1.21236       -0.66874        0.69985
B         -1.74570       -0.74276        0.79718
B         -1.60411       -4.05494       -0.42683
B          4.05694       -0.66156        0.29513
B         -1.66336       -2.39528        0.18746
B          4.03215       -2.33220       -0.18910
B         -0.16785       -4.64846       -0.58015
B         -3.06613       -3.23059       -0.41651
B         -3.12842       -1.61184        0.18094
B         -4.59582       -0.79504       -0.27926
B         -0.30178        1.77804        0.90156
B         -1.71883        2.47725        0.29611
B         -3.16103        1.66297        0.25136
B         -4.60836        0.82649       -0.24565
B         -4.47666        2.40493       -0.47896
B         -3.15277        3.28427       -0.28600
B         -1.73763        4.14971       -0.26734
B         -0.33624        3.39150        0.39313
B         -0.33827        4.80459       -0.39704
B          2.50988        3.45883        0.06175
B          1.08955        4.23839       -0.14758
B          2.56623        1.81729        0.42384
B          3.89552        2.67464       -0.09827
B          4.01132        1.01614        0.32095
B          1.13569        2.60918        0.60415
B          1.24452       -2.42750        0.50511
B         -3.22511       -0.05840        0.61440
B          1.15101        0.89996        0.72722
B         -4.43274       -2.37253       -0.57519
B          5.30100       -1.48855       -0.69165
B          5.25548        0.13213       -0.42435
B          5.21466        1.90714       -0.62451
B          6.35265        1.02331       -1.24879
B          6.41279       -0.50125       -1.29153
B         -1.76317        0.87972        0.82900
B          1.86479       -2.56579        1.66940
B         -0.22161       -1.64676        0.87874
B         -5.88101       -1.61213       -0.73874
B         -6.07874        0.04784       -0.75971
B         -5.91625        1.71097       -0.73645
B         -0.36883       -1.31907       -0.02058
