45
isomer_2523.log	Energy: -113675.8209534
B         -2.53194       -1.74849       -0.50288
B         -2.46254       -3.31822        0.04452
B         -1.09115       -4.15256        0.12468
B          0.31521       -3.39314       -0.52180
B         -1.14767       -0.84858       -1.05919
B          1.75217       -0.83558       -0.86400
B          1.70279       -4.15199        0.25751
B         -3.96878       -0.88169       -0.21919
B          1.77117       -2.54033       -0.46727
B         -3.83603       -2.51463        0.28650
B          0.29114       -4.74596        0.35916
B          3.05540       -3.30138        0.27455
B          3.15581       -1.70120       -0.24686
B          4.54157       -0.83921        0.19413
B          0.33510        1.83243       -1.10295
B          1.75932        2.54309       -0.45859
B          3.14890        1.70946       -0.24081
B          4.54291        0.85357        0.18315
B          4.36329        2.47435        0.76303
B          3.04242        3.31039        0.27701
B          1.68582        4.15579        0.26043
B          0.30238        3.39562       -0.52431
B          0.27185        4.74637        0.36032
B         -2.47661        3.31349        0.04215
B         -1.10863        4.15132        0.12209
B         -2.54030        1.74350       -0.50942
B         -3.84665        2.50635        0.28162
B         -3.97320        0.87138       -0.22169
B         -1.15743        2.58283       -0.78046
B         -1.14692       -2.58476       -0.77633
B          3.29528        0.00297       -0.60844
B         -1.15332        0.84817       -1.06160
B          4.37563       -2.46531        0.75910
B         -5.08165       -1.70230        0.85551
B         -5.19799       -0.00705        0.52082
B         -5.08965        1.68877        0.85081
B         -6.09862        0.75278        1.60631
B         -6.09489       -0.76916        1.60827
B          1.74282        0.83812       -0.84883
B         -2.60982       -0.00282       -0.74373
B          0.34374       -1.83141       -1.10710
B          5.43491       -1.54117        1.31702
B          5.62143        0.00559        1.30282
B          5.42031        1.55004        1.32347
B          0.34245        0.00059       -1.10951
