45
isomer_2525.log	Energy: -112725.3832907
B          2.64838       -1.66496        0.36843
B          2.60759       -3.30108       -0.01162
B          1.20520       -4.12761       -0.25883
B         -0.25482       -3.31632        0.28863
B          1.09473       -0.76392        0.78478
B         -1.72266       -0.79940        0.77506
B         -1.63254       -4.08568       -0.40269
B          4.06159       -0.78166        0.32022
B         -1.65471       -2.42477        0.19342
B          4.01609       -2.45519       -0.15119
B         -0.21387       -4.71730       -0.53308
B         -3.06692       -3.23848       -0.41685
B         -3.10936       -1.62495        0.15648
B         -4.56193       -0.79101       -0.32604
B         -0.28741        1.76721        0.86280
B         -1.67365        2.46024        0.24372
B         -3.12687        1.64972        0.19247
B         -4.56195        0.82329       -0.30630
B         -4.42640        2.39494       -0.55373
B         -3.10053        3.27167       -0.35662
B         -1.68474        4.13191       -0.33342
B         -0.29540        3.36804        0.34806
B         -0.26870        4.78485       -0.45575
B          2.55748        3.39548        0.04547
B          1.14626        4.21020       -0.18791
B          2.58876        1.75950        0.41435
B          3.96731        2.57021       -0.10873
B          4.04514        0.91078        0.33403
B          1.15988        2.58381        0.57788
B          1.19189       -2.51948        0.52805
B         -3.20406       -0.07208        0.56769
B          1.14436        0.89456        0.70413
B         -4.41301       -2.36779       -0.59888
B          5.31138       -1.64645       -0.63807
B          5.29007       -0.00916       -0.39096
B          5.27148        1.78805       -0.60723
B          6.42112        0.85230       -1.20311
B          6.45793       -0.66400       -1.22369
B         -1.72951        0.84763        0.79168
B          1.33088       -0.71294       -0.04646
B         -0.28521       -1.69212        0.83884
B         -5.86136       -1.60221       -0.78507
B         -6.04373        0.06415       -0.82869
B         -5.85779        1.71835       -0.81918
B         -0.48038       -0.86836        2.20791
