45
isomer_2527.log	Energy: -113675.8855555
B          2.56339       -1.73038        0.53091
B          2.51419       -3.30379       -0.03641
B          1.15733       -4.14900       -0.10903
B         -0.26864       -3.40270        0.53806
B          1.17034       -0.85100        1.06910
B         -1.71753       -0.84345        0.78659
B         -1.64151       -4.16969       -0.25919
B          3.98372       -0.84507        0.22430
B         -1.72402       -2.55118        0.42981
B          3.86988       -2.48482       -0.27582
B         -0.21923       -4.74787       -0.35353
B         -3.00827       -3.34085       -0.27901
B         -3.12880       -1.73351        0.22000
B         -4.54760       -0.89466       -0.14344
B         -0.36940        1.82517        1.11702
B         -1.80218        2.53246        0.48828
B         -3.17350        1.68015        0.26011
B         -4.53204        0.79720       -0.23815
B         -4.40739        2.44412       -0.74894
B         -3.09247        3.28027       -0.26629
B         -1.74861        4.14400       -0.24679
B         -0.35135        3.38466        0.51363
B         -0.34210        4.74560       -0.35273
B          2.42722        3.33518       -0.03961
B          1.04732        4.15737       -0.12298
B          2.50908        1.76009        0.48853
B          3.80959        2.53755       -0.29315
B          3.95580        0.91098        0.21438
B          1.11902        2.59005        0.76525
B          1.18612       -2.57753        0.78905
B         -3.29348       -0.01617        0.60928
B          1.12964        0.84876        1.04191
B         -4.32648       -2.50003       -0.76993
B          5.10477       -1.65148       -0.84506
B          5.19560        0.04446       -0.52270
B          5.06119        1.73901       -0.86427
B          6.08576        0.81415       -1.61143
B          6.10564       -0.70657       -1.60489
B         -1.78700        0.83047        0.91162
B          2.60991        0.01626        0.74657
B         -0.31276       -1.83046        1.08685
B         -5.37307       -1.56962       -1.33743
B         -5.62092       -0.03373       -1.30336
B         -5.47428        1.51836       -1.30052
B         -0.34285       -0.00278        1.09340
