45
isomer_2528.log	Energy: -113516.5927713
B          2.50954        1.73899       -0.55566
B          2.54460        3.38201       -0.16650
B          1.19894        4.16786        0.01848
B         -0.29766        3.40198       -0.46340
B          1.03916        0.88321       -0.85659
B         -1.74402        0.87325       -0.81589
B         -1.61956        4.11625        0.41080
B          3.90564        0.84572       -0.25313
B         -1.69778        2.48847       -0.21129
B          3.90469        2.52130        0.02448
B         -0.19207        4.72295        0.41655
B         -3.00513        3.29757        0.44805
B         -3.13511        1.75551       -0.13279
B         -4.54196        0.86489        0.21910
B         -0.43829       -1.62418       -0.89588
B         -1.85637       -2.42952       -0.53569
B         -3.31211       -1.63777       -0.43611
B         -4.72501       -0.75779       -0.17716
B         -4.58808       -2.41325        0.40206
B         -3.23958       -3.23270        0.02075
B         -1.88379       -4.05213        0.15628
B         -0.40948       -3.30971       -0.46104
B         -0.48627       -4.61499        0.46146
B          2.29196       -3.13975        0.42901
B          0.90604       -4.00137        0.34798
B          2.58600       -1.80653       -1.03719
B          3.67228       -2.39325        0.47142
B          3.87898       -0.95135       -0.43857
B          1.09407       -2.46802       -0.59742
B          1.15576        2.59996       -0.80481
B         -3.28940        0.08217       -0.64870
B          1.04124       -0.80019       -0.82971
B         -4.39968        2.47721        0.79796
B          5.08723        1.63274        0.64699
B          5.22627       -0.06024        0.18519
B          5.12585       -1.71521        0.62397
B          6.24956       -0.85118        1.19148
B          6.10166        0.63944        1.33811
B         -1.77547       -0.74549       -0.76600
B          2.18483       -1.43082        0.61033
B         -0.35630        1.74372       -0.96073
B         -5.60287        1.60132        1.13712
B         -5.84980        0.06060        0.99621
B         -5.65403       -1.46326        0.92898
B          2.39552        0.00160       -0.23849
