45
isomer_2529.log	Energy: -113435.9295886
B         -2.46201       -1.50812       -0.25253
B         -2.74124       -3.55827       -0.10164
B         -1.20826       -3.96171        0.27828
B          0.32411       -3.30116       -0.54099
B         -1.01222       -0.67431       -0.90760
B          1.79754       -0.77126       -0.86129
B          1.67492       -4.08277        0.16613
B         -3.95667       -0.73579       -0.41228
B          1.77577       -2.47342       -0.52049
B         -3.81575       -2.44435        0.24562
B          0.25886       -4.54583        0.45817
B          3.10603       -3.28299        0.10993
B          3.21269       -1.72257       -0.33808
B          4.61745       -0.82295        0.06486
B          0.42113        1.73400       -0.84368
B          1.84093        2.49664       -0.35408
B          3.28694        1.71029       -0.20901
B          4.73480        0.82486       -0.12984
B          4.57446        2.44184        0.60728
B          3.20005        3.25285        0.32617
B          1.80846        4.09831        0.42918
B          0.42705        3.38780       -0.28982
B          0.40873        4.70382        0.59448
B         -2.42607        3.40189        0.01100
B         -1.00637        4.15733        0.26325
B         -2.51326        1.85457       -0.55548
B         -3.87762        2.62902        0.09933
B         -3.94862        0.99865       -0.45151
B         -1.06414        2.60743       -0.53170
B         -0.96041       -2.27128       -0.18675
B          3.31936        0.03019       -0.64571
B         -1.01876        0.90486       -0.93159
B          4.49796       -2.49173        0.49590
B         -5.13384       -1.52535        0.59657
B         -5.24370        0.12002        0.17219
B         -5.18098        1.87024        0.49897
B         -6.24110        0.94263        1.15208
B         -6.23450       -0.57888        1.20812
B          1.77794        0.83538       -0.72472
B         -2.09680       -2.56641        0.94880
B          0.39355       -1.59454       -0.97618
B          5.67242       -1.61859        0.93349
B          5.88026       -0.06613        0.94579
B          5.66655        1.46350        1.01317
B         -2.53566        0.13226       -0.85379
