45
isomer_0253.log	Energy: -112302.0260028
B         -2.68038       -1.65823       -0.41464
B         -2.60536       -3.34976       -0.01250
B         -1.11338       -4.20388        0.19394
B          0.32549       -3.36663       -0.37016
B         -1.11066       -0.78458       -0.73259
B          1.78310       -0.81672       -0.83836
B          1.72165       -4.12868        0.30812
B         -4.09149       -0.77453       -0.35807
B          1.71393       -2.44948       -0.27871
B         -4.04272       -2.47072        0.12122
B          0.31644       -4.78585        0.45411
B          3.13943       -3.27115        0.32330
B          3.16563       -1.64387       -0.23681
B          4.61517       -0.81103        0.25996
B          0.34994        1.80463       -0.88971
B          1.73118        2.46781       -0.26348
B          3.17764        1.65771       -0.22382
B          4.61735        0.82210        0.26682
B          4.47100        2.38951        0.53175
B          3.15658        3.27540        0.34846
B          1.73386        4.13843        0.33404
B          0.33094        3.38860       -0.35943
B          0.31265        4.80103        0.46309
B         -2.55348        3.42063       -0.07102
B         -1.12905        4.23044        0.17936
B         -2.62157        1.78506       -0.45575
B         -3.98641        2.60523        0.07432
B         -4.07178        0.93278       -0.37001
B         -1.14794        2.61467       -0.59977
B         -1.12325       -2.59004       -0.59711
B          3.25716       -0.08109       -0.62748
B         -1.20977        0.89981       -0.76393
B          4.46409       -2.38819        0.50981
B         -5.34098       -1.63900        0.60877
B         -5.31947        0.00167        0.36169
B         -5.30126        1.81221        0.58092
B         -6.45320        0.87647        1.18325
B         -6.48242       -0.65768        1.20007
B          1.78971        0.86025       -0.83206
B         -1.56640       -1.98394       -0.01392
B          0.33370       -1.73541       -0.89858
B          5.92719       -1.63541        0.71544
B          6.11252        0.05253        0.78055
B          5.93003        1.73721        0.79662
B         -0.52540        0.65171       -0.38770
