45
isomer_2531.log	Energy: -113675.8837144
B          2.50751       -1.76019        0.48614
B          2.42509       -3.33573       -0.04011
B          1.04479       -4.15714       -0.12303
B         -0.35308       -3.38445        0.51445
B          1.12888       -0.84852        1.04034
B         -1.78905       -0.83007        0.91471
B         -1.75092       -4.14369       -0.24471
B          3.95573       -0.91237        0.21552
B         -1.80380       -2.53217        0.49103
B          3.80794       -2.53862       -0.29381
B         -0.34491       -4.74561       -0.35144
B         -3.09422       -3.27922       -0.26481
B         -3.17437       -1.67918        0.26104
B         -4.53191       -0.79554       -0.23954
B         -0.31165        1.83012        1.08644
B         -1.72230        2.55179        0.42807
B         -3.12809        1.73518        0.22005
B         -4.54662        0.89635       -0.14419
B         -4.32439        2.50138       -0.77119
B         -3.00675        3.34270       -0.27867
B         -1.63926        4.17073       -0.25828
B         -0.26687        3.40314        0.54002
B         -0.21642        4.74794       -0.35209
B          2.51607        3.30303       -0.03631
B          1.15990        4.14875       -0.10783
B          2.56465        1.72933        0.53148
B          3.87101        2.48326       -0.27533
B          3.98533        0.84363        0.22617
B          1.18771        2.57728        0.78929
B          1.11751       -2.58984        0.76400
B         -3.29349        0.01716        0.60918
B          1.17131        0.85134        1.06790
B         -4.40884       -2.44323       -0.74814
B          5.05905       -1.74093       -0.86594
B          5.19520       -0.04695       -0.52305
B          5.10547        1.64929       -0.84447
B          6.10567        0.70394       -1.60493
B          6.08394       -0.81663       -1.61309
B         -1.71648        0.84372        0.78344
B          2.60992       -0.01729        0.74709
B         -0.34283        0.00279        1.09161
B         -5.47553       -1.51721       -1.30017
B         -5.61994        0.03506       -1.30482
B         -5.37034        1.57083       -1.33963
B         -0.37062       -1.82417        1.11759
