45
isomer_2534.log	Energy: -112543.8489228
B          2.61231       -1.63264        0.38929
B          2.60850       -3.26862        0.00049
B          1.20392       -4.10277       -0.24067
B         -0.25361       -3.27902        0.32029
B          1.15085       -0.74798        0.70616
B         -1.72333       -0.78899        0.80385
B         -1.64388       -4.06614       -0.36668
B          4.06729       -0.75257        0.31407
B         -1.64045       -2.38999        0.23432
B          4.01215       -2.44231       -0.15150
B         -0.21713       -4.72352       -0.51585
B         -3.07905       -3.22459       -0.37034
B         -3.10925       -1.60631        0.20489
B         -4.57421       -0.79649       -0.28110
B         -0.29856        1.77233        0.87778
B         -1.68648        2.46545        0.26132
B         -3.14017        1.65444        0.22303
B         -4.58955        0.82245       -0.27210
B         -4.43781        2.38295       -0.50937
B         -3.14071        3.27930       -0.33417
B         -1.72175        4.14782       -0.32100
B         -0.31674        3.37961        0.35732
B         -0.30774        4.83375       -0.46270
B          2.54502        3.42702        0.03772
B          1.12485        4.23702       -0.19429
B          2.57989        1.78719        0.40831
B          3.96407        2.62921       -0.12330
B          4.05128        0.93575        0.32345
B          1.14273        2.59694        0.58164
B          1.19078       -2.47137        0.55345
B         -3.20538       -0.07891        0.61038
B          1.13550        0.87151        0.71517
B         -4.39293       -2.35110       -0.53570
B          5.32654       -1.62224       -0.65670
B          5.30921        0.00751       -0.41370
B          5.29372        1.83988       -0.63745
B          6.46543        0.89953       -1.24992
B          6.48015       -0.65310       -1.25856
B         -1.73894        0.85694        0.81301
B          1.04955       -0.81875        2.09481
B         -0.26586       -1.67758        0.85860
B         -5.90911       -1.65325       -0.73949
B         -6.12068        0.05839       -0.79414
B         -5.93933        1.79017       -0.79095
B          0.13889       -1.52692       -0.46967
