45
isomer_2535.log	Energy: -113555.2540024
B         -2.11440        1.49319        0.65816
B         -1.98509        3.05284       -0.32254
B         -0.64198        3.86079       -0.55444
B          0.79178        3.31851        0.26434
B         -0.80020        1.32777        1.69557
B          1.97117        0.80501        0.91531
B          2.17938        3.84995       -0.60006
B         -3.69954        0.82004        0.10263
B          2.19517        2.46905        0.61248
B         -3.40921        2.41809       -0.22204
B          0.80720        4.39426       -0.91012
B          3.51314        2.97623       -0.36841
B          3.42338        1.43615        0.23480
B          4.72715        0.32331        0.03661
B          0.05247       -1.47993        1.16295
B          1.18133       -2.28253        0.16720
B          2.84644       -1.96161        0.31103
B          4.30845       -1.25573       -0.28023
B          3.86319       -2.87213       -0.74288
B          2.38406       -3.36886       -0.34622
B          0.82033       -3.90772       -0.26290
B         -0.29626       -2.50296       -0.60519
B         -0.64731       -4.26297       -0.08498
B         -3.14205       -2.31277       -0.02552
B         -1.84780       -3.30769       -0.03616
B         -2.58315       -0.36839        0.43333
B         -4.61543       -2.35141       -0.38079
B         -4.03885       -0.88298       -0.05710
B         -1.53004       -1.70328        0.32174
B         -0.75412        2.63290        0.59760
B          3.33780       -0.30151        0.72235
B         -1.16437       -0.14921        1.08552
B          4.70190        1.95277       -0.73449
B         -4.85005        1.92595       -0.49523
B         -5.25652        0.24539       -0.38343
B         -5.70490       -1.37554       -0.80085
B         -6.57717       -0.14625       -1.22066
B         -6.21023        1.29406       -1.09550
B          1.70011       -0.81045        1.10152
B         -0.37590       -3.04865        1.07726
B          0.73490        1.99843        1.31542
B          5.53648        0.81476       -1.26899
B          5.57174       -0.74329       -1.27515
B          5.14804       -2.21324       -1.25287
B          0.44893        0.19963        1.51094
