45
isomer_2537.log	Energy: -112808.1944565
B         -2.71291        1.74035        0.36563
B         -2.67171        3.40105       -0.00657
B         -1.29972        4.21206       -0.22443
B          0.16422        3.43888        0.31599
B         -1.40029        0.95376        0.63296
B          1.73640        0.89492        0.83244
B          1.54980        4.18950       -0.35755
B         -4.03314        0.84572        0.32223
B          1.61093        2.55093        0.23426
B         -3.98672        2.49824       -0.14486
B          0.11908        4.73773       -0.48240
B          2.95701        3.37939       -0.36911
B          3.07327        1.76350        0.19667
B          4.53754        0.92948       -0.28740
B          0.44119       -1.68597        0.99569
B          1.88354       -2.45924        0.20659
B          3.20953       -1.62308        0.20860
B          4.57932       -0.72898       -0.27145
B          4.54026       -2.33760       -0.58471
B          3.18229       -3.27313       -0.37552
B          1.78289       -4.19614       -0.36893
B          0.33539       -3.48720        0.32094
B          0.28878       -4.80378       -0.44107
B         -2.62917       -3.45109        0.01931
B         -1.22548       -4.33527       -0.21295
B         -2.68531       -1.71890        0.40664
B         -3.97121       -2.50164       -0.13885
B         -4.03157       -0.90266        0.32577
B         -1.32517       -2.68148        0.57657
B         -1.33044        2.64818        0.52564
B          3.23453        0.14602        0.60905
B         -1.23969       -0.73069        0.72153
B          4.40422        2.54774       -0.59593
B         -5.22011        1.69556       -0.63666
B         -5.20092        0.03287       -0.39740
B         -5.19264       -1.68559       -0.61485
B         -6.25644       -0.75681       -1.19249
B         -6.32918        0.70751       -1.22466
B          1.83374       -0.80858        0.85312
B         -0.30087        0.44605        1.70598
B          0.22699        1.86347        0.85138
B          5.68310        1.67792       -0.73515
B          5.89223        0.12234       -0.77828
B          5.76491       -1.41710       -0.78541
B          0.01155       -1.83826       -0.00037
