45
isomer_2539.log	Energy: -113360.8137238
B          2.52905        1.71112       -0.68799
B          2.59457        3.45886       -0.23907
B          1.27258        4.25000       -0.16442
B         -0.20150        3.53636       -0.69911
B          1.15852        0.98505       -1.23710
B         -1.54149        0.95327       -0.84478
B         -1.53323        4.27120        0.14245
B          3.81013        0.94875       -0.14943
B         -1.60417        2.63001       -0.56215
B          3.80157        2.57810        0.07700
B         -0.11806        4.84375        0.19441
B         -2.88576        3.42911        0.23579
B         -2.95746        1.83467       -0.17164
B         -4.30802        0.94717        0.35415
B         -0.39337       -1.70944       -1.61634
B         -1.53987       -2.37807       -0.42947
B         -2.98223       -1.58483       -0.19679
B         -4.32401       -0.70393        0.26243
B         -4.15055       -2.33040        0.84867
B         -2.87610       -3.16882        0.25145
B         -1.59640       -4.05450        0.04470
B         -0.29051       -3.36485       -1.06135
B         -0.21404       -4.67093        0.02212
B          2.29953       -3.22993       -0.05321
B          1.20327       -4.29033       -0.37670
B          2.19186       -1.48819       -0.38795
B          3.49325       -2.29897        0.41477
B          3.62463       -0.76232       -0.00972
B          1.14284       -2.46366       -1.24792
B          1.22791        2.61533       -0.94269
B         -3.04273        0.11019       -0.46982
B          0.97699       -0.62516       -1.13813
B         -4.16002        2.60537        0.80204
B          4.99718        1.72476        0.83369
B          4.79818        0.07381        0.77263
B          4.76569       -1.58428        1.07992
B          5.81636       -0.70509        1.79023
B          5.90922        0.79734        1.71082
B         -1.45517       -0.68591       -0.78717
B          0.54757       -3.00927        0.50547
B         -0.26803        1.87688       -1.22097
B         -5.24367        1.68752        1.40009
B         -5.41207        0.14049        1.43155
B         -5.18694       -1.40066        1.43805
B          0.12445       -1.49956        0.08147
