45
isomer_2541.log	Energy: -113428.1930149
B          2.62128       -1.60816        0.41984
B          2.60418       -3.29981        0.15773
B          1.20137       -4.09508        0.09200
B         -0.26210       -3.35467        0.75277
B          1.15134       -0.80114        0.55968
B         -1.61771       -0.82719        0.44236
B         -1.64883       -4.12044       -0.09853
B          4.05049       -0.84324        0.29869
B         -1.72664       -2.54013        0.43163
B          3.95689       -2.43850       -0.20661
B         -0.20866       -4.63356       -0.19585
B         -3.06138       -3.32837       -0.17175
B         -3.10976       -1.68566        0.19701
B         -4.50900       -0.84643       -0.20302
B         -0.27742        1.65450        1.13271
B         -1.72365        2.54045        0.42967
B         -3.10672        1.68669        0.19121
B         -4.50932        0.84844       -0.19946
B         -4.38885        2.50397       -0.69945
B         -3.05908        3.32982       -0.17351
B         -1.64719        4.12168       -0.09919
B         -0.26159        3.35609        0.75689
B         -0.20664        4.63218       -0.19627
B          2.60438        3.29838        0.15933
B          1.20317        4.09442        0.09357
B          2.62033        1.60562        0.42013
B          3.95647        2.43691       -0.20621
B          4.05015        0.84225        0.29956
B          1.25891        2.50906        0.63428
B          1.25970       -2.51023        0.63415
B         -3.22544        0.00056        0.50203
B          1.14754        0.80178        0.55809
B         -4.39109       -2.50290       -0.69828
B          5.17111       -1.68749       -0.81639
B          5.22887       -0.00020       -0.54256
B          5.17171        1.68763       -0.81512
B          6.25798        0.74681       -1.51130
B          6.25737       -0.74598       -1.51232
B         -1.61212        0.82807        0.42909
B         -0.21571        0.00143        1.58492
B         -0.27664       -1.65255        1.12991
B         -5.43903       -1.56484       -1.27177
B         -5.63300        0.00071       -1.25604
B         -5.43699        1.56551       -1.27157
B         -0.21869       -0.00642       -0.16204
