45
isomer_2542.log	Energy: -113359.3593709
B          2.70343        1.54134       -0.48759
B          2.73133        3.17374        0.14397
B          1.38408        3.99278        0.39638
B         -0.10335        3.36596       -0.31088
B          1.25615        0.79231       -0.79971
B         -1.67127        0.94390       -0.93799
B         -1.44831        4.11173        0.52260
B          4.06268        0.72258       -0.31156
B         -1.58439        2.57173       -0.33055
B          4.09329        2.34362        0.08268
B         -0.01015        4.60189        0.69952
B         -2.86770        3.33074        0.44634
B         -3.04310        1.85277       -0.22974
B         -4.38565        0.90856        0.21744
B         -0.33343       -1.64241       -1.24328
B         -1.74343       -2.66264       -0.75892
B         -3.09619       -1.65455       -0.34278
B         -4.60431       -0.67880       -0.24833
B         -4.56179       -2.29377        0.36687
B         -3.19008       -3.10627        0.28420
B         -1.85670       -3.36430        0.98252
B         -0.38100       -3.42329        0.06499
B         -0.47400       -3.51329        1.66366
B          2.33255       -2.96264        0.55763
B          0.91436       -3.34115        1.14820
B          2.51629       -1.74252       -0.54909
B          3.74080       -2.35883        0.43046
B          3.98157       -0.95351       -0.35240
B          1.06043       -2.67351       -0.67066
B          1.34146        2.46263       -0.40413
B         -3.18596        0.10401       -0.62628
B          1.19878       -0.82108       -0.90070
B         -4.32968        2.57101        0.66180
B          5.43356        1.52253        0.38580
B          5.43095       -0.14980       -0.07601
B          5.25802       -1.70515        0.52791
B          6.46673       -0.91471        0.99634
B          6.47012        0.56723        0.99343
B         -1.70460       -0.72013       -0.85549
B         -0.22283        0.02688       -1.11866
B         -0.18926        1.81567       -0.93111
B         -5.55957        1.72185        0.91978
B         -5.82838        0.17461        0.79436
B         -5.68793       -1.34979        0.73231
B         -0.31353       -3.18792       -1.53337
