45
isomer_2543.log	Energy: -113408.5588266
B          2.45857        1.81021       -0.54461
B          2.39874        3.47439       -0.02491
B          1.03447        4.27413        0.06222
B         -0.36590        3.45661       -0.52845
B          1.18150        0.96004       -1.14891
B         -1.74873        0.89179       -0.89866
B         -1.74957        4.20787        0.25492
B          3.79337        1.05075       -0.02857
B         -1.78792        2.60044       -0.54611
B          3.71433        2.65651        0.23668
B         -0.36415        4.83878        0.32195
B         -3.07508        3.30491        0.31259
B         -3.10156        1.71229       -0.16233
B         -4.46142        0.77090        0.30793
B         -0.28421       -1.67730       -1.18596
B         -1.63498       -2.48614       -0.62604
B         -3.06008       -1.69271       -0.26380
B         -4.47993       -0.90221        0.09710
B         -4.22447       -2.52357        0.70295
B         -2.87286       -3.31115        0.23987
B         -1.51564       -4.03871        0.24982
B         -0.14093       -3.27768       -0.58113
B         -0.03738       -4.55272        0.47201
B          2.50695       -3.16498        0.12559
B          1.33612       -4.00567        0.85318
B          2.50762       -1.47619       -0.53100
B          3.78811       -2.26097        0.28649
B          3.80448       -0.67303       -0.05110
B          1.28571       -2.40343       -1.09789
B          1.11936        2.69523       -0.81342
B         -3.22518        0.00243       -0.57862
B          1.24640       -0.69400       -1.20270
B         -4.33093        2.42061        0.84213
B          5.03070        1.85102        0.82764
B          5.11428        0.20357        0.44268
B          5.08631       -1.44165        0.84550
B          6.11909       -0.54214        1.51587
B          6.07695        0.96255        1.52628
B         -1.64521       -0.76685       -0.82246
B          1.28470       -4.04376       -0.71980
B         -0.35524        1.92530       -1.17763
B         -5.37311        1.45165        1.41023
B         -5.52681       -0.09570        1.35852
B         -5.27033       -1.62030        1.31131
B         -0.25613        0.12888       -1.06936
