45
isomer_2544.log	Energy: -113259.2246214
B         -2.51544       -1.63045       -0.61503
B         -2.57557       -3.31645       -0.10264
B         -1.22022       -4.12457        0.02155
B          0.23692       -3.40583       -0.48312
B         -1.09848       -0.90911       -1.23972
B          1.66494       -0.82333       -0.87169
B          1.58578       -4.13261        0.32557
B         -3.89741       -0.78522       -0.25770
B          1.65135       -2.49718       -0.35113
B         -3.87750       -2.44896        0.08520
B          0.19432       -4.72233        0.40225
B          2.96086       -3.28126        0.33477
B          3.07630       -1.73107       -0.20329
B          4.47160       -0.86269        0.23672
B          0.37365        1.75761       -1.03316
B          1.76143        2.49611       -0.40007
B          3.15264        1.68637       -0.26787
B          4.50536        0.78967        0.19561
B          4.49314        2.44491        0.58161
B          3.10059        3.25415        0.25532
B          1.76304        4.14648        0.26750
B          0.37226        3.43539       -0.49488
B          0.39222        4.77154        0.37505
B         -2.42597        3.42287       -0.03100
B         -1.04556        4.19849        0.06524
B         -2.45802        1.75083       -0.51098
B         -3.78573        2.62412        0.16557
B         -3.87481        0.98603       -0.22020
B         -1.09689        2.66094       -0.71941
B         -1.20415       -2.60645       -0.78200
B          3.20312       -0.04111       -0.57358
B         -1.05734        0.91097       -1.04824
B          4.38592       -2.51041        0.65379
B         -5.14749       -1.60066        0.66632
B         -5.10758        0.09875        0.44277
B         -5.09152        1.80543        0.71257
B         -6.11944        0.87172        1.43324
B         -6.14845       -0.65507        1.41687
B          1.71174        0.82956       -0.90119
B         -2.13164       -0.47446        0.23655
B          0.29498       -1.72668       -1.04145
B          5.58174       -1.62676        1.04380
B          5.80416       -0.05280        1.01978
B          5.64547        1.52179        1.00538
B         -0.50433       -0.49826        0.20535
