45
isomer_2546.log	Energy: -110698.7360540
B          2.57606        1.78452       -0.42728
B          2.54507        3.42616       -0.06446
B          1.12688        4.24020        0.16556
B         -0.31720        3.38315       -0.38007
B          1.12938        0.87038       -0.72788
B         -1.74521        0.86129       -0.82188
B         -1.71973        4.15749        0.29643
B          4.04580        0.93044       -0.34030
B         -1.68871        2.47230       -0.27793
B          3.96268        2.62619        0.09849
B         -0.30412        4.84116        0.43300
B         -3.14046        3.29199        0.31559
B         -3.14401        1.66450       -0.23386
B         -4.59446        0.83788        0.26712
B         -0.27743       -1.67646       -0.85733
B         -1.65267       -2.38304       -0.22787
B         -3.11981       -1.59619       -0.20024
B         -4.58244       -0.78103        0.28381
B         -4.40403       -2.33478        0.54556
B         -3.09219       -3.21177        0.38265
B         -1.65876       -4.05630        0.38111
B         -0.26778       -3.27534       -0.31142
B         -0.23318       -4.71592        0.53154
B          2.59477       -3.26934        0.00457
B          1.18879       -4.09942        0.25154
B          2.60144       -1.63525       -0.39202
B          4.00032       -2.44523        0.15078
B          4.05833       -0.75784       -0.32289
B          1.17796       -2.47180       -0.55032
B          1.14034        2.59640       -0.60257
B         -3.21480        0.12945       -0.61494
B          1.14140       -0.74908       -0.71118
B         -4.43917        2.39917        0.49676
B          5.29137        1.83656        0.61465
B          5.30130        0.20310        0.39755
B          5.31707       -1.62549        0.65035
B          6.47347       -0.65588        1.24607
B          6.46195        0.89672        1.23006
B         -1.73300       -0.78460       -0.80491
B          1.25724       -2.51904       -1.10075
B         -0.30304        1.77339       -0.89290
B         -5.94309        1.67915        0.71388
B         -6.12561       -0.03474        0.79597
B         -5.91502       -1.76305        0.81998
B          0.22431       -0.05999       -0.21000
