45
isomer_2548.log	Energy: -112884.8975293
B          2.60487       -1.68490        0.39487
B          2.58392       -3.31852        0.00601
B          1.18367       -4.15081       -0.23220
B         -0.26288       -3.32679        0.32830
B          1.14730       -0.80590        0.70901
B         -1.70993       -0.81967        0.82693
B         -1.65294       -4.10296       -0.35556
B          4.05062       -0.81056        0.31553
B         -1.64375       -2.43126        0.24616
B          3.98810       -2.48822       -0.14855
B         -0.23462       -4.75476       -0.50256
B         -3.07557       -3.25409       -0.36061
B         -3.10465       -1.63834        0.21546
B         -4.55869       -0.81803       -0.27335
B         -0.27825        1.73429        0.88545
B         -1.66199        2.43165        0.26728
B         -3.11609        1.62609        0.23034
B         -4.56261        0.79727       -0.26571
B         -4.41368        2.35877       -0.51247
B         -3.09939        3.24273       -0.33293
B         -1.68323        4.10482       -0.32439
B         -0.28872        3.33922        0.35470
B         -0.27308        4.77344       -0.46547
B          2.55720        3.37110        0.02962
B          1.15514        4.18116       -0.20121
B          2.59024        1.73147        0.40832
B          3.96728        2.55666       -0.13171
B          4.04392        0.88068        0.32085
B          1.16596        2.55292        0.57964
B          1.18350       -2.52916        0.55793
B         -3.19513       -0.10339        0.62007
B          1.14280        0.83317        0.72267
B         -4.39971       -2.38219       -0.53413
B          5.29691       -1.68407       -0.65586
B          5.28702       -0.05078       -0.41501
B          5.27797        1.76352       -0.64136
B          6.43144        0.81866       -1.25223
B          6.44655       -0.71949       -1.26154
B         -1.71597        0.82622        0.83341
B          1.39282       -0.41728        1.72956
B         -0.26852       -1.72393        0.86850
B         -5.87611       -1.65046       -0.73425
B         -6.07181        0.03703       -0.78963
B         -5.88326        1.73412       -0.78642
B         -0.46665       -0.02942       -0.27345
