45
isomer_0255.log	Energy: -113190.2467041
B         -1.84109        1.51705        0.04915
B         -1.68752        3.19082       -0.69491
B         -0.24108        3.91491       -0.90425
B          0.99206        3.34721        0.15591
B         -0.33814        0.69468        0.56937
B          1.82596        0.83072        1.02888
B          2.51344        3.84331       -0.52685
B         -3.45853        1.21145        0.33029
B          2.32358        2.41931        0.53771
B         -3.10937        2.56997       -0.46728
B          1.20852        4.47592       -0.95366
B          3.76103        2.83761       -0.19445
B          3.46718        1.34695        0.41813
B          4.64363        0.16686        0.27772
B         -0.13727       -0.81432        0.02352
B          0.98463       -2.17344        0.10491
B          2.65914       -1.90706        0.40007
B          4.35154       -1.42494        0.60874
B          3.82022       -2.94566       -0.21336
B          2.29142       -3.33895       -0.21547
B          0.77174       -3.70408       -0.70604
B         -0.61527       -2.88921        0.39328
B         -0.62335       -3.98488       -1.14720
B         -3.29608       -2.65228       -0.27226
B         -1.99296       -3.32888       -0.92002
B         -2.67559       -1.36753        0.43543
B         -4.52168       -1.76424        0.33633
B         -4.03200       -0.39724        0.85198
B         -1.63022       -1.58067       -0.54735
B         -0.49644        2.53563        0.15068
B          3.10378       -0.31004        0.85635
B         -1.71745        0.21723        0.33493
B          5.03869        1.75708       -0.23040
B         -4.70075        2.14579       -0.46364
B         -5.03819        0.68806        0.34735
B         -5.69568       -0.84599        0.52035
B         -6.62186        0.25664       -0.01000
B         -6.12722        1.57330       -0.51920
B          1.42637       -0.59610        0.59004
B         -2.08099       -2.70882        0.84850
B          0.67051        1.99706        1.07456
B          6.05081        0.64849       -0.33421
B          5.83911       -0.91961       -0.28094
B          5.21249       -2.29879       -0.42188
B         -0.27711       -2.23332       -1.22078
