45
isomer_2550.log	Energy: -112553.2363897
B          2.61052       -1.70270        0.40438
B          2.59449       -3.34286        0.03397
B          1.18376       -4.16885       -0.19925
B         -0.26791       -3.32768        0.35092
B          1.15562       -0.80333        0.70979
B         -1.71889       -0.82116        0.80498
B         -1.66355       -4.11177       -0.32860
B          4.07230       -0.83472        0.32077
B         -1.64779       -2.42904        0.25355
B          4.00460       -2.52912       -0.12585
B         -0.24176       -4.78172       -0.46891
B         -3.09220       -3.25931       -0.34318
B         -3.11049       -1.63448        0.21381
B         -4.56871       -0.81895       -0.28275
B         -0.27453        1.72982        0.85161
B         -1.65649        2.42660        0.22598
B         -3.11633        1.62641        0.19530
B         -4.57161        0.80007       -0.29194
B         -4.40764        2.35659       -0.54656
B         -3.10385        3.24486       -0.38011
B         -1.67827        4.10255       -0.37523
B         -0.27985        3.33123        0.31311
B         -0.25889        4.77595       -0.52317
B          2.58249        3.35307       -0.00405
B          1.16882        4.17130       -0.24660
B          2.60439        1.71728        0.38497
B          3.99552        2.54262       -0.15464
B          4.06927        0.85366        0.31119
B          1.17334        2.53994        0.54771
B          1.18242       -2.52858        0.57648
B         -3.19524       -0.10193        0.60203
B          1.15271        0.81623        0.70060
B         -4.39916       -2.37766       -0.51969
B          5.32574       -1.72490       -0.63887
B          5.32072       -0.09244       -0.41420
B          5.31953        1.73737       -0.65852
B          6.48455        0.78123       -1.25920
B          6.48733       -0.77147       -1.25038
B         -1.72184        0.82484        0.79564
B          0.84775        0.87009        1.93909
B         -0.26835       -1.72025        0.87120
B         -5.90973       -1.67052       -0.73286
B         -6.10808        0.04197       -0.80695
B         -5.91342        1.77224       -0.82302
B         -0.16130       -0.86249       -0.03254
