45
isomer_2552.log	Energy: -112662.1877037
B          2.82874       -1.57106        0.37865
B          2.92947       -3.39771       -0.03390
B          1.60207       -4.29389       -0.28464
B         -0.13148       -3.40924        0.28992
B          1.30040       -0.34091        0.71209
B         -1.80427       -0.79574        0.74528
B         -1.53943       -4.07427       -0.38184
B          4.10116       -0.69603        0.31270
B         -1.78080       -2.40586        0.18389
B          4.12660       -2.37653       -0.12037
B          0.03182       -4.70462       -0.48431
B         -3.05791       -3.25437       -0.41744
B         -3.17662       -1.64269        0.11750
B         -4.61873       -0.80721       -0.36571
B         -0.24967        1.74334        0.86742
B         -1.69819        2.43474        0.25331
B         -3.15729        1.61616        0.18014
B         -4.58965        0.78156       -0.32728
B         -4.48340        2.37115       -0.57446
B         -3.09163        3.22622       -0.32745
B         -1.69746        4.07918       -0.30164
B         -0.30073        3.35033        0.34757
B         -0.31286        4.68386       -0.43673
B          2.50828        3.41468       -0.00415
B          1.10772        4.16652       -0.20295
B          2.60576        1.77462        0.38841
B          3.88353        2.60273       -0.15475
B          4.02076        1.00886        0.30914
B          1.20717        2.57352        0.55829
B          1.59742       -2.71226        0.46840
B         -3.26206       -0.07817        0.52900
B          1.23765        0.90866        0.70222
B         -4.50785       -2.41709       -0.65973
B          5.33439       -1.49453       -0.63441
B          5.24158        0.14428       -0.40982
B          5.15710        1.86116       -0.63814
B          6.27081        0.99946       -1.22590
B          6.38800       -0.48302       -1.24072
B         -1.77260        0.84812        0.76092
B          0.84334       -1.89498        0.76553
B         -0.53555       -1.51903        0.90335
B         -5.80932       -1.54606       -0.81897
B         -5.98136        0.01953       -0.84673
B         -5.77212        1.54980       -0.80603
B         -0.99282       -0.24320        1.92433
