45
isomer_2553.log	Energy: -111807.2603142
B          2.54857        1.75229       -0.49578
B          2.53130        3.38882       -0.10967
B          1.12057        4.20774        0.14724
B         -0.33443        3.36686       -0.39450
B          1.09329        0.85088       -0.79331
B         -1.78215        0.85979       -0.85595
B         -1.72489        4.13972        0.30809
B          4.01406        0.88856       -0.43688
B         -1.71015        2.46263       -0.29013
B          3.94581        2.57842        0.02653
B         -0.30384        4.81317        0.43873
B         -3.15046        3.28228        0.33068
B         -3.16967        1.66274       -0.24146
B         -4.61948        0.83757        0.26374
B         -0.32997       -1.68568       -0.94303
B         -1.70247       -2.39306       -0.30851
B         -3.16451       -1.59818       -0.25380
B         -4.61692       -0.78145        0.25761
B         -4.44494       -2.33974        0.49559
B         -3.14018       -3.22194        0.30605
B         -1.71191       -4.07467        0.27699
B         -0.32391       -3.29212       -0.41972
B         -0.28873       -4.74460        0.40254
B          2.54188       -3.30718       -0.13503
B          1.13375       -4.13248        0.11566
B          2.55398       -1.66772       -0.50873
B          3.95383       -2.49337        0.00732
B          4.01673       -0.79984       -0.44327
B          1.12391       -2.49369       -0.66314
B          1.11590        2.57488       -0.64396
B         -3.25373        0.13364       -0.64321
B          1.09585       -0.76870       -0.79944
B         -4.45242        2.39455        0.51352
B          5.27531        1.77391        0.51699
B          5.27315        0.14363        0.27692
B          5.28078       -1.68840        0.50388
B          6.44934       -0.73399        1.10044
B          6.44688        0.81872        1.10631
B         -1.77955       -0.78622       -0.86218
B          2.46689       -0.48386        1.63646
B         -0.33543        1.76441       -0.92997
B         -5.95815        1.68028        0.73698
B         -6.14997       -0.03351        0.79704
B         -5.94942       -1.76317        0.79452
B          0.41548       -1.09191       -0.18817
