45
isomer_2554.log	Energy: -113441.9682452
B         -2.45057        1.82461        0.46721
B         -2.37356        3.45273       -0.11082
B         -0.97888        4.21885       -0.27739
B          0.44148        3.42808        0.34027
B         -1.14792        0.95914        1.03429
B          1.77480        0.86138        0.72319
B          1.83428        4.13222       -0.42099
B         -3.72789        1.01838       -0.01653
B          1.84811        2.55113        0.45933
B         -3.79731        2.69175       -0.16019
B          0.45534        4.75357       -0.55948
B          3.19394        3.24688       -0.35057
B          3.21414        1.67882        0.16312
B          4.64479        0.72759        0.04705
B          0.27726       -1.65359        1.30366
B          1.55236       -2.48809        0.56585
B          3.02461       -1.74412        0.31575
B          4.41152       -0.90737       -0.21479
B          4.26527       -2.56387       -0.59810
B          2.82906       -3.27266       -0.17027
B          1.38024       -3.98023       -0.24399
B         -0.07614       -3.24215        0.39379
B          0.04947       -4.50043       -0.66166
B         -2.66277       -3.19457       -0.79576
B         -1.38576       -4.10534       -0.81064
B         -2.47535       -1.74189        0.39430
B         -3.73979       -2.13631       -0.65069
B         -3.68396       -0.64490       -0.00778
B         -1.81988       -3.42161        0.59188
B         -1.08837        2.68736        0.57298
B          3.25482       -0.02792        0.65253
B         -1.28589       -0.63244        1.02384
B          4.49921        2.36254       -0.68982
B         -5.12706        1.93622       -0.51170
B         -5.17543        0.23897       -0.08105
B         -5.16510       -1.31577       -0.68147
B         -6.37016       -0.47125       -0.99937
B         -6.24485        1.01029       -1.06352
B          1.68375       -0.78877        1.00670
B         -1.17037       -2.28407        1.41972
B          0.39937        1.88195        0.97173
B          5.52086        1.32827       -1.14579
B          5.69641       -0.21275       -1.10545
B          5.44683       -1.75555       -1.08448
B          0.24905        0.09492        0.96509
