45
isomer_2555.log	Energy: -110629.0189463
B          2.52722        1.71279       -0.49186
B          2.51505        3.34831       -0.10134
B          1.10692        4.17073        0.15869
B         -0.35092        3.33562       -0.38437
B          1.06908        0.81650       -0.79086
B         -1.80636        0.83410       -0.85161
B         -1.73863        4.11071        0.32120
B          3.99017        0.84456       -0.43622
B         -1.72924        2.43519       -0.28153
B          3.92723        2.53336        0.03176
B         -0.31550        4.77959        0.45273
B         -3.16672        3.25745        0.34241
B         -3.19110        1.63951       -0.23406
B         -4.64303        0.81729        0.26985
B         -0.36180       -1.71542       -0.94647
B         -1.73598       -2.42043       -0.31297
B         -3.19563       -1.62137       -0.25518
B         -4.64528       -0.80171        0.25937
B         -4.47777       -2.36114        0.49306
B         -3.17576       -3.24670        0.30030
B         -1.75004       -4.10358        0.26802
B         -0.36017       -3.32327       -0.42748
B         -0.32877       -4.77805        0.39084
B          2.50575       -3.34759       -0.14469
B          1.09534       -4.16939        0.10469
B          2.52247       -1.70718       -0.51400
B          3.92019       -2.53836       -0.00108
B          3.98783       -0.84382       -0.44716
B          1.08986       -2.52849       -0.66970
B          1.09689        2.54001       -0.63689
B         -3.27995        0.11175       -0.63987
B          1.06683       -0.80305       -0.80135
B         -4.47119        2.37309        0.52371
B          5.25465        1.72360        0.51920
B          5.24751        0.09399        0.27475
B          5.24984       -1.73866        0.49678
B          6.42161       -0.78934        1.09514
B          6.42377        0.76336        1.10519
B         -1.80865       -0.81188       -0.86227
B          2.63130       -0.60894        1.84317
B         -0.35701        1.73463       -0.92413
B         -5.97889        1.66268        0.74623
B         -6.17576       -0.05068        0.80181
B         -5.98034       -1.78092        0.79451
B          1.37501        0.45115       -0.43831
