45
isomer_2559.log	Energy: -110460.9190334
B          2.62626        1.73541       -0.40633
B          2.62107        3.37522       -0.03406
B          1.21593        4.20964        0.20281
B         -0.24198        3.37807       -0.34547
B          1.16523        0.84538       -0.70991
B         -1.70929        0.88106       -0.79948
B         -1.63143        4.17000        0.33763
B          4.08280        0.85833       -0.32653
B         -1.62719        2.48785       -0.24640
B          4.02644        2.55261        0.12210
B         -0.20526        4.83100        0.47592
B         -3.06529        3.32636        0.35405
B         -3.09469        1.70230       -0.20470
B         -4.55696        0.89522        0.29379
B         -0.28080       -1.67873       -0.85174
B         -1.66583       -2.36767       -0.22420
B         -3.12064       -1.55851       -0.18979
B         -4.56984       -0.72375        0.30120
B         -4.41499       -2.28154        0.55378
B         -3.11704       -3.17765        0.38380
B         -1.69679       -4.04412        0.37520
B         -0.29496       -3.28068       -0.31501
B         -0.28131       -4.72644        0.51963
B          2.56779       -3.32055       -0.00344
B          1.14957       -4.13030        0.24096
B          2.59904       -1.68449       -0.39069
B          3.98608       -2.51901        0.14530
B          4.06937       -0.83001       -0.31880
B          1.16262       -2.49812       -0.55156
B          1.20295        2.57028       -0.57474
B         -3.18966        0.17073       -0.59445
B          1.15235       -0.77414       -0.70250
B         -4.37732        2.45260        0.53212
B          5.34357        1.73968        0.63166
B          5.32804        0.10753        0.40520
B          5.31602       -1.72251        0.64750
B          6.48809       -0.77425        1.24696
B          6.50044        0.77841        1.23986
B         -1.72239       -0.76490       -0.79195
B          0.66788        0.25653       -1.25048
B         -0.25335        1.77125       -0.86752
B         -5.89182        1.75456        0.74745
B         -6.10059        0.04324        0.82003
B         -5.91659       -1.68821        0.83381
B         -0.24556       -2.34767       -0.71101
