45
isomer_0256.log	Energy: -112008.2839791
B         -2.62477       -1.65115       -0.38902
B         -2.62250       -3.28485        0.00924
B         -1.21883       -4.11796        0.25913
B          0.24049       -3.29785       -0.30250
B         -1.16219       -0.76872       -0.70691
B          1.71225       -0.81105       -0.79633
B          1.62861       -4.08136        0.39288
B         -4.07971       -0.77027       -0.32294
B          1.62733       -2.40870       -0.21779
B         -4.02634       -2.45731        0.15254
B          0.20127       -4.73749        0.54186
B          3.06400       -3.24018        0.39569
B          3.09626       -1.62525       -0.18879
B          4.56008       -0.81303        0.29660
B          0.28840        1.75019       -0.88903
B          1.67479        2.44649       -0.27271
B          3.12813        1.63533       -0.22567
B          4.57590        0.80583        0.27829
B          4.42393        2.36772        0.50612
B          3.12758        3.26338        0.32213
B          1.70890        4.13218        0.29998
B          0.30557        3.36043       -0.37781
B          0.29469        4.81929        0.43377
B         -2.55705        3.41045       -0.06649
B         -1.13731        4.22140        0.16481
B         -2.59134        1.76851       -0.42769
B         -3.97677        2.61395        0.09517
B         -4.06321        0.91796       -0.34203
B         -1.15348        2.57686       -0.60168
B         -1.20302       -2.49118       -0.54436
B          3.19394       -0.10025       -0.60283
B         -1.14636        0.85070       -0.72522
B          4.37765       -2.36609        0.55966
B         -5.34191       -1.63399        0.64932
B         -5.32345       -0.00568        0.39696
B         -5.30807        1.82796        0.61016
B         -6.48174        0.89147        1.22478
B         -6.49692       -0.66108        1.24234
B          1.72834        0.83480       -0.81495
B         -0.57341       -2.10927       -1.24285
B          0.25468       -1.69955       -0.85001
B          5.89346       -1.66748        0.76366
B          6.10535        0.04440        0.80901
B          5.92450        1.77618        0.79532
B         -0.04772        0.48426       -0.29180
