45
isomer_2560.log	Energy: -113431.7674180
B          2.46829       -1.69634        0.48620
B          2.62947       -3.17625       -0.89065
B          1.28861       -3.98132       -0.93564
B          0.04657       -3.24813        0.40578
B          1.27257       -0.64676        1.06234
B         -1.66664       -0.77504        0.82646
B         -1.46990       -3.99854       -0.25246
B          3.79985       -0.75182        0.13423
B         -1.57375       -2.47659        0.49541
B          3.75747       -2.20784       -0.55556
B         -0.12360       -4.42656       -0.72574
B         -2.89337       -3.28834       -0.10713
B         -3.05789       -1.70428        0.31456
B         -4.55225       -0.92665        0.13247
B         -0.37921        1.89376        1.02804
B         -1.81329        2.55128        0.30514
B         -3.17998        1.68188        0.17034
B         -4.56966        0.74331       -0.12661
B         -4.47787        2.36009       -0.77203
B         -3.11633        3.22458       -0.48907
B         -1.77460        4.12026       -0.47932
B         -0.36988        3.40122        0.28806
B         -0.36806        4.74112       -0.58743
B          2.42299        3.45582       -0.05011
B          1.04830        4.21535       -0.23868
B          2.45683        1.82346        0.45107
B          3.79207        2.64941       -0.09431
B          3.80481        1.00233        0.16457
B          1.09732        2.67313        0.71356
B          1.79782       -3.28407        0.45953
B         -3.28285        0.00834        0.72564
B          1.17629        0.94024        0.98809
B         -4.29112       -2.52770       -0.52838
B          5.17643       -1.42333       -0.68131
B          5.16544        0.17341       -0.12508
B          5.14680        1.82785       -0.50594
B          6.24942        0.95448       -1.10788
B          6.30008       -0.52454       -1.14137
B         -1.78381        0.91282        0.86899
B         -0.26935        0.10191        0.89712
B         -0.29133       -1.67165        1.25017
B         -5.42715       -1.66327       -1.01678
B         -5.75471       -0.15605       -1.01341
B         -5.54246        1.37247       -1.23083
B          1.13163       -2.27344        1.48796
