45
isomer_2564.log	Energy: -113435.9299456
B         -2.46164       -1.50711       -0.25010
B         -2.74045       -3.55854       -0.10093
B         -1.20752       -3.96144        0.27856
B          0.32428       -3.30040       -0.54022
B         -1.01209       -0.67404       -0.90608
B          1.79767       -0.77105       -0.86260
B          1.67553       -4.08293        0.16464
B         -3.95664       -0.73588       -0.41340
B          1.77642       -2.47304       -0.52168
B         -3.81536       -2.44463        0.24640
B          0.25954       -4.54626        0.45753
B          3.10659       -3.28276        0.10781
B          3.21342       -1.72240       -0.34070
B          4.61740       -0.82275        0.06559
B          0.42085        1.73395       -0.84437
B          1.84070        2.49678       -0.35607
B          3.28690        1.71066       -0.21247
B          4.73459        0.82537       -0.12741
B          4.57339        2.44150        0.60798
B          3.19958        3.25267        0.32529
B          1.80844        4.09848        0.42873
B          0.42693        3.38778       -0.28964
B          0.40854        4.70334        0.59536
B         -2.42595        3.40147        0.01157
B         -1.00637        4.15667        0.26432
B         -2.51350        1.85463       -0.55593
B         -3.87772        2.62895        0.09928
B         -3.94899        0.99882       -0.45159
B         -1.06435        2.60737       -0.53160
B         -0.95985       -2.27052       -0.18475
B          3.32003        0.03009       -0.64663
B         -1.01913        0.90491       -0.93285
B          4.49804       -2.49157        0.49516
B         -5.13356       -1.52578        0.59669
B         -5.24410        0.11928        0.17142
B         -5.18083        1.86986        0.49919
B         -6.24052        0.94180        1.15247
B         -6.23468       -0.57967        1.20749
B          1.77843        0.83562       -0.72635
B         -2.09707       -2.56634        0.94994
B          0.39357       -1.59433       -0.97557
B          5.67195       -1.61852        0.93456
B          5.87896       -0.06579        0.94844
B          5.66478        1.46383        1.01680
B         -2.53621        0.13192       -0.85426
