45
isomer_2565.log	Energy: -112523.0987634
B         -2.62879        1.75299        0.41000
B         -2.61903        3.39262        0.03700
B         -1.21160        4.22280       -0.20115
B          0.24422        3.38720        0.34657
B         -1.17019        0.85882        0.71305
B          1.70448        0.88610        0.80078
B          1.63554        4.17474       -0.33777
B         -4.08795        0.88016        0.33153
B          1.62674        2.49288        0.24703
B         -4.02691        2.57406       -0.11790
B          0.21124        4.83986       -0.47545
B          3.06691        3.32688       -0.35472
B          3.09191        1.70300        0.20475
B          4.55147        0.89141       -0.29431
B          0.26852       -1.66946        0.85511
B          1.65111       -2.36275        0.22699
B          3.10827       -1.55788        0.19129
B          4.55960       -0.72759       -0.30099
B          4.40002       -2.28504       -0.55277
B          3.09955       -3.17726       -0.38156
B          1.67677       -4.03955       -0.37167
B          0.27764       -3.27169        0.31910
B          0.25920       -4.71778       -0.51488
B         -2.58543       -3.30329        0.00937
B         -1.16974       -4.11731       -0.23557
B         -2.61163       -1.66698        0.39589
B         -4.00145       -2.49766       -0.13883
B         -4.07948       -0.80822        0.32456
B         -1.17750       -2.48474        0.55622
B         -1.20294        2.58376        0.57713
B          3.18263        0.17134        0.59513
B         -1.16206       -0.76074        0.70637
B          4.37626        2.44920       -0.53323
B         -5.34675        1.76477       -0.62626
B         -5.33586        0.13269       -0.39906
B         -5.32937       -1.69749       -0.64054
B         -6.49903       -0.74606       -1.23969
B         -6.50682        0.80663       -1.23328
B          1.71274       -0.75989        0.79399
B         -0.14582       -0.84795        2.26389
B          0.25120        1.78059        0.86935
B          5.88856        1.74662       -0.74921
B          6.09227        0.03467       -0.82115
B          5.90318       -1.69624       -0.83402
B          0.05831       -1.65822       -0.42108
