45
isomer_2567.log	Energy: -112741.2533647
B          2.67347       -1.62833        0.40591
B          2.64735       -3.31209        0.04242
B          1.27414       -4.16902       -0.22236
B         -0.23877       -3.35476        0.30484
B          1.22195       -0.61851        0.69004
B         -1.76022       -0.74872        0.82878
B         -1.62142       -4.11475       -0.39710
B          4.06008       -0.77541        0.31720
B         -1.73141       -2.40770        0.19679
B          4.01069       -2.44552       -0.10365
B         -0.17441       -4.73559       -0.49479
B         -3.10357       -3.22659       -0.40701
B         -3.14662       -1.61228        0.17416
B         -4.58758       -0.76421       -0.31453
B         -0.24146        1.73185        0.85579
B         -1.64450        2.44895        0.25212
B         -3.11127        1.66210        0.21328
B         -4.57606        0.84889       -0.29115
B         -4.41270        2.42063       -0.54673
B         -3.05830        3.26600       -0.34444
B         -1.62309        4.10901       -0.33102
B         -0.24121        3.34843        0.33026
B         -0.22091        4.73274       -0.47446
B          2.59381        3.36741        0.00121
B          1.20286        4.16322       -0.22296
B          2.62802        1.73529        0.36601
B          3.97583        2.54502       -0.15926
B          4.05031        0.90695        0.30139
B          1.21620        2.56038        0.54189
B          1.28400       -2.52412        0.55550
B         -3.21691       -0.04908        0.60279
B          1.21047        0.85257        0.64396
B         -4.46162       -2.35109       -0.59975
B          5.29031       -1.65007       -0.63222
B          5.27251       -0.00871       -0.41758
B          5.25849        1.75873       -0.65395
B          6.38353        0.82974       -1.23977
B          6.42154       -0.68653       -1.24039
B         -1.73253        0.85256        0.81642
B          0.30352        0.17156        1.81212
B         -0.39730       -1.61339        1.07789
B         -5.86679       -1.54716       -0.78490
B         -6.02886        0.11317       -0.82162
B         -5.83528        1.72412       -0.80464
B          0.05370       -1.80570        0.17352
