45
isomer_2568.log	Energy: -112186.2062494
B          2.62387        1.74046       -0.44679
B          2.59665        3.36987       -0.05706
B          1.18082        4.18353        0.16915
B         -0.25439        3.36615       -0.38357
B          1.17822        0.84830       -0.76623
B         -1.72864        0.86113       -0.84310
B         -1.64783        4.13885        0.29286
B          4.07350        0.89257       -0.37130
B         -1.64673        2.47297       -0.28902
B          3.98151        2.56714        0.08856
B         -0.22826        4.78247        0.43274
B         -3.07415        3.30202        0.30773
B         -3.11789        1.68512       -0.24613
B         -4.58812        0.87008        0.24902
B         -0.31734       -1.63036       -0.91915
B         -1.73026       -2.37860       -0.26604
B         -3.16160       -1.58167       -0.23103
B         -4.59877       -0.74522        0.25690
B         -4.46305       -2.30576        0.52407
B         -3.13638       -3.19467        0.34180
B         -1.70934       -4.05802        0.33753
B         -0.32015       -3.30486       -0.35386
B         -0.25788       -4.71952        0.47823
B          2.66753       -3.28724       -0.05833
B          1.22867       -4.14172        0.22120
B          2.68239       -1.62235       -0.45847
B          4.04313       -2.44937        0.08786
B          4.09494       -0.78429       -0.37415
B          1.29221       -2.45188       -0.62929
B          1.20819        2.56333       -0.61306
B         -3.22130        0.14644       -0.63659
B          1.19931       -0.68778       -0.77670
B         -4.42147        2.44203        0.49854
B          5.30485        1.77365        0.59172
B          5.31595        0.15173        0.35409
B          5.34020       -1.63795        0.58965
B          6.46001       -0.70257        1.19342
B          6.45863        0.83896        1.19794
B         -1.75575       -0.77335       -0.84252
B          0.52177       -2.48749       -0.42224
B         -0.25139        1.75510       -0.91109
B         -5.89006        1.70372        0.70019
B         -6.08968        0.03063        0.76980
B         -5.91037       -1.65236        0.78516
B          0.06847        0.11079        0.42755
