45
isomer_2569.log	Energy: -113474.0057506
B         -2.59419       -1.69356       -0.62529
B         -2.49776       -3.11517        0.38787
B         -1.14454       -3.87618        0.45432
B          0.12115       -3.34704       -0.61900
B         -1.28706       -0.76084       -0.83673
B          1.66872       -0.76490       -0.69149
B          1.64159       -4.13091        0.15196
B         -3.97769       -0.82280       -0.27222
B          1.63643       -2.48526       -0.30502
B         -3.86056       -2.29878        0.37868
B          0.27644       -4.52768        0.54241
B          3.01152       -3.31351        0.10779
B          3.10054       -1.69952       -0.32566
B          4.57597       -0.85505       -0.14875
B          0.35166        1.86041       -1.06867
B          1.77739        2.57009       -0.47158
B          3.11941        1.70667       -0.15519
B          4.53353        0.79686        0.17820
B          4.43201        2.45241        0.72348
B          3.07452        3.27536        0.37116
B          1.70516        4.14167        0.40511
B          0.32689        3.37550       -0.36599
B          0.30631        4.70646        0.53430
B         -2.47841        3.33269        0.02169
B         -1.10349        4.11258        0.23234
B         -2.52295        1.66799       -0.57877
B         -3.82028        2.52357        0.09944
B         -3.93399        0.93531       -0.27943
B         -1.15674        2.60325       -0.66732
B         -1.33830       -2.73065       -1.12258
B          3.25875        0.04198       -0.65910
B         -1.17258        0.89145       -1.04049
B          4.37559       -2.46391        0.49708
B         -5.23229       -1.50580        0.68354
B         -5.26222        0.10576        0.17184
B         -5.18591        1.74765        0.56657
B         -6.27074        0.90082        1.22984
B         -6.29884       -0.57454        1.28603
B          1.77033        0.88457       -0.91002
B         -1.10151       -2.06705        0.48434
B          0.17421       -1.63704       -0.56680
B          5.43474       -1.53542        1.04067
B          5.73877       -0.01820        1.06064
B          5.58365        1.52573        1.12150
B          0.24477        0.06506       -1.02065
