45
isomer_0257.log	Energy: -113323.0891297
B          2.64230       -1.50779        0.50698
B          2.68669       -3.14339        0.14801
B          1.33540       -4.03302        0.48677
B         -0.33098       -3.58749        0.84415
B          1.30634       -0.71255        1.06228
B         -1.62398       -0.88337        0.87235
B         -1.22233       -4.06118       -0.54672
B          3.87329       -0.56390       -0.01462
B         -1.46173       -2.47262        0.21831
B          3.83656       -2.23374       -0.34003
B          0.14978       -4.64864       -0.31889
B         -2.57568       -3.19785       -0.78133
B         -2.85385       -1.72246       -0.11824
B         -4.25022       -0.86596       -0.60465
B         -0.35779        1.76013        1.18010
B         -1.81691        2.47671        0.69969
B         -3.16371        1.62973        0.27430
B         -4.53047        0.72506       -0.15444
B         -4.39591        2.42541       -0.61794
B         -3.12334        3.25874       -0.05109
B         -1.80911        4.14908        0.05486
B         -0.39212        3.38241        0.76774
B         -0.43227        4.80489        0.02021
B          2.39407        3.45507        0.22177
B          0.97718        4.24773        0.21096
B          2.52291        1.80059        0.61036
B          3.69069        2.69545       -0.27001
B          3.93486        1.07409        0.11702
B          1.12374        2.59031        0.83433
B          1.55055       -2.45742        1.29606
B         -3.19441       -0.08985        0.48165
B          1.20042        0.86380        1.09458
B         -3.93633       -2.39417       -1.29899
B          4.86732       -1.30867       -1.26452
B          4.46565        0.33450       -1.26045
B          4.87623        1.99290       -1.04870
B          5.77298        1.11517       -1.91295
B          5.69739       -0.39505       -2.10276
B         -1.71482        0.76757        0.85638
B         -0.20209       -0.06050        1.10736
B         -0.20041       -1.84430        1.33437
B         -5.08984       -1.54038       -1.78437
B         -5.43272       -0.04293       -1.55768
B         -5.33601        1.48099       -1.32843
B          0.54267       -3.26314        2.07620
