45
isomer_2572.log	Energy: -113467.2375106
B         -2.50899        1.65314        0.60477
B         -2.44256        3.29767       -0.14867
B         -1.06096        4.09197       -0.33668
B          0.36391        3.38800        0.31278
B         -1.15128        0.90656        1.06523
B          1.72331        0.87862        0.71526
B          1.76970        4.13232       -0.43226
B         -3.94323        0.94542        0.35225
B          1.79527        2.54176        0.41926
B         -3.79447        2.50918       -0.11939
B          0.36592        4.68544       -0.61946
B          3.14158        3.26946       -0.32286
B          3.20351        1.71750        0.27963
B          4.57306        0.77201       -0.06510
B          0.14622       -1.62229        0.54591
B          1.62264       -2.49110        0.32001
B          3.09964       -1.71983        0.40416
B          4.55287       -0.87945        0.13210
B          4.37860       -2.48776       -0.45679
B          2.99374       -3.31070       -0.07828
B          1.60769       -4.10855       -0.20853
B          0.08489       -3.33268        0.53738
B          0.25800       -4.45166       -0.68005
B         -2.53649       -3.07031       -0.44622
B         -1.16248       -3.77860       -0.59693
B         -2.62174       -1.70540        0.65957
B         -3.90175       -2.26886       -0.36423
B         -3.99634       -0.81305        0.33563
B         -1.35755       -2.72823        1.06308
B         -1.13090        2.58121        0.52416
B          3.24919        0.01726        0.67434
B         -1.31133       -0.72258        0.73032
B          4.49241        2.41977       -0.64716
B         -5.19655        1.75910       -0.49853
B         -5.28805        0.12655       -0.07008
B         -5.28059       -1.48023       -0.59879
B         -6.35355       -0.54371       -1.16959
B         -6.31539        0.92635       -1.11670
B          1.63044       -0.77872        0.74994
B         -1.13981       -1.99793       -0.53195
B          0.35963        1.85167        0.96621
B          5.60340        1.46647       -1.06310
B          5.75095       -0.07972       -0.99358
B          5.47907       -1.60880       -0.97641
B          0.24839        0.04274        1.14934
