45
isomer_2573.log	Energy: -113458.2091899
B         -2.55752        1.72620        0.66160
B         -2.47462        3.41395       -0.08665
B         -1.09543        4.15655       -0.19801
B          0.32855        3.37023        0.39999
B         -1.22413        0.93754        1.04591
B          1.73873        0.85721        0.85969
B          1.75934        4.13325       -0.22082
B         -3.93627        0.98576        0.21633
B          1.79910        2.54754        0.59724
B         -3.74451        2.56222       -0.26653
B          0.34778        4.71790       -0.42721
B          3.11360        3.28273       -0.16935
B          3.14768        1.67638        0.28021
B          4.55011        0.74130        0.00579
B          0.29301       -1.81246        1.48070
B          1.34641       -2.34865       -0.15272
B          2.97410       -1.79850        0.18593
B          4.32704       -0.86964       -0.35639
B          4.16950       -2.51020       -0.85392
B          2.80577       -3.27055       -0.45354
B          1.47200       -4.09694       -0.23266
B          0.20087       -3.32385        0.78086
B          0.08274       -4.64543       -0.18007
B         -2.61922       -3.24705       -0.01104
B         -1.31696       -4.06339        0.05465
B         -2.64089       -1.54318        0.56489
B         -3.89944       -2.35837       -0.19148
B         -3.98080       -0.78369        0.27270
B         -1.18796       -2.38658        0.38025
B         -1.15363        2.51708        0.44484
B          3.18297       -0.07818        0.59188
B         -1.22169       -0.75612        0.92273
B          4.44759        2.42071       -0.54114
B         -5.06352        1.73839       -0.78388
B         -5.21741        0.12579       -0.33119
B         -5.22453       -1.53686       -0.70220
B         -6.22166       -0.64797       -1.41264
B         -6.12220        0.83671       -1.49357
B          1.67703       -0.91698        0.96986
B          0.24931        0.00547        1.08317
B          0.32447        1.78733        0.97724
B          5.47577        1.45455       -1.08109
B          5.61311       -0.10467       -1.18004
B          5.36429       -1.63590       -1.27058
B          0.11152       -1.25965       -0.17975
