45
isomer_2574.log	Energy: -112090.6728280
B         -2.64655       -1.66199       -0.41361
B         -2.60453       -3.33824       -0.02016
B         -1.18709       -4.23201        0.25260
B          0.32739       -3.38873       -0.31010
B         -1.12860       -0.75986       -0.77296
B          1.78933       -0.76784       -0.83349
B          1.71718       -4.14233        0.38710
B         -4.06796       -0.77992       -0.33675
B          1.75347       -2.41514       -0.24196
B         -4.00992       -2.46466        0.12830
B          0.28467       -4.80355        0.52385
B          3.15315       -3.23318        0.38034
B          3.18066       -1.59730       -0.20021
B          4.60313       -0.73733        0.29487
B          0.27887        1.84052       -0.90931
B          1.67060        2.51536       -0.28780
B          3.13642        1.70952       -0.23598
B          4.58732        0.88295        0.27412
B          4.42229        2.45451        0.51998
B          3.09670        3.33302        0.31927
B          1.67641        4.19065        0.29769
B          0.28179        3.43032       -0.38618
B          0.26643        4.84943        0.43167
B         -2.56852        3.45130       -0.05916
B         -1.16528        4.26789        0.16470
B         -2.60293        1.80663       -0.44297
B         -3.97609        2.61102        0.10298
B         -4.05747        0.93771       -0.34830
B         -1.17926        2.65073       -0.61383
B         -1.20856       -2.54360       -0.58726
B          3.24715       -0.02742       -0.61797
B         -1.15728        0.97106       -0.75319
B          4.47400       -2.31786        0.56847
B         -5.30220       -1.64354        0.64016
B         -5.28928       -0.00207        0.39369
B         -5.27512        1.80667        0.61372
B         -6.41661        0.85924        1.23001
B         -6.44063       -0.66868        1.24520
B          1.76155        0.90181       -0.83970
B         -1.68763       -0.18802       -0.22443
B          0.34268       -1.65429       -0.92063
B          5.92101       -1.54066        0.77202
B          6.08489        0.14084        0.81454
B          5.87894        1.80970        0.80229
B          0.03550       -2.51266       -0.80163
