45
isomer_2577.log	Energy: -113675.8862809
B         -2.56317        1.73055        0.53061
B         -2.51348        3.30348       -0.03719
B         -1.15677        4.14914       -0.10877
B          0.26888        3.40301        0.53927
B         -1.17018        0.85077        1.06885
B          1.71795        0.84364        0.78859
B          1.64176        4.16983       -0.25841
B         -3.98409        0.84522        0.22463
B          1.72430        2.55145        0.43051
B         -3.86966        2.48488       -0.27584
B          0.21964        4.74811       -0.35283
B          3.00817        3.34044       -0.27930
B          3.12861        1.73334        0.22009
B          4.54668        0.89422       -0.14556
B          0.36920       -1.82513        1.11691
B          1.80212       -2.53255        0.48902
B          3.17316       -1.68017        0.25943
B          4.53259       -0.79787       -0.23672
B          4.40685       -2.44441       -0.74913
B          3.09185       -3.28046       -0.26603
B          1.74812       -4.14401       -0.24629
B          0.35106       -3.38468        0.51421
B          0.34173       -4.74588       -0.35179
B         -2.42736       -3.33475       -0.04010
B         -1.04742       -4.15725       -0.12287
B         -2.50923       -1.75997        0.48867
B         -3.80962       -2.53726       -0.29295
B         -3.95635       -0.91050        0.21567
B         -1.11920       -2.58987        0.76489
B         -1.18587        2.57761        0.78879
B          3.29358        0.01621        0.60918
B         -1.12985       -0.84876        1.04249
B          4.32609        2.49953       -0.77132
B         -5.10441        1.65162       -0.84538
B         -5.19544       -0.04460       -0.52299
B         -5.06048       -1.73882       -0.86485
B         -6.08433       -0.81423       -1.61285
B         -6.10474        0.70657       -1.60566
B          1.78613       -0.83020        0.91079
B         -2.60940       -0.01604        0.74577
B          0.31279        1.83082        1.08774
B          5.37331        1.56958       -1.33837
B          5.62016        0.03326       -1.30439
B          5.47357       -1.51882       -1.30050
B          0.34276        0.00293        1.09397
