45
isomer_2578.log	Energy: -113670.7125162
B          2.50434        1.75966       -0.45111
B          2.42620        3.35626        0.03256
B          1.02979        4.15314        0.13012
B         -0.37646        3.37094       -0.49067
B          1.11771        0.87195       -0.91996
B         -1.83577        0.83205       -0.95659
B         -1.78161        4.13701        0.23697
B          3.96489        0.92592       -0.24744
B         -1.82749        2.52893       -0.49218
B          3.81347        2.54652        0.28097
B         -0.37110        4.73663        0.35693
B         -3.13018        3.27395        0.25416
B         -3.19902        1.67745       -0.28655
B         -4.53544        0.77452        0.25558
B         -0.35677        0.00400       -0.97195
B         -1.70364       -2.55960       -0.39568
B         -3.11916       -1.74505       -0.16499
B         -4.56425       -0.91349        0.07053
B         -4.33579       -2.53182        0.73009
B         -3.01190       -3.37848        0.25022
B         -1.63141       -4.18634        0.21743
B         -0.25063       -3.39804       -0.56740
B         -0.19866       -4.75023        0.31713
B          2.54203       -3.30726        0.05351
B          1.18201       -4.15347        0.10233
B          2.57792       -1.71765       -0.50734
B          3.89651       -2.47309        0.27644
B          4.01226       -0.84131       -0.25896
B          1.20385       -2.56261       -0.72003
B          1.10478        2.59006       -0.72255
B         -3.28788       -0.02168       -0.61137
B          1.16398       -0.83204       -0.93315
B         -4.44928        2.43936        0.71684
B          5.07966        1.75379        0.82714
B          5.21390        0.06246        0.48371
B          5.14239       -1.63249        0.79959
B          6.17249       -0.67935        1.52726
B          6.14105        0.83588        1.53672
B         -1.68807       -0.83879       -0.58282
B          2.62386        0.01719       -0.78870
B         -0.39575        1.80311       -1.11484
B         -5.53624        1.50939        1.24260
B         -5.65761       -0.04791        1.24953
B         -5.37268       -1.58086        1.28144
B         -0.29631       -1.80863       -1.04550
