45
isomer_2579.log	Energy: -113558.4182698
B         -2.00226       -2.37122       -0.50806
B         -1.41703       -3.23037        0.96511
B          0.14571       -3.36160        0.98011
B          1.16378       -3.43850       -0.55546
B         -0.80414       -1.40797       -1.32588
B          1.76887       -0.65267       -0.93803
B          2.81526       -3.58800        0.07814
B         -3.11648       -1.15229       -0.31297
B          2.35066       -2.25800       -0.83755
B         -2.29623       -1.95966        1.19711
B          1.64413       -3.71450        0.98374
B          3.94238       -2.50150       -0.16919
B          3.43573       -0.99184       -0.46338
B          4.52864        0.28346       -0.08652
B         -0.42299        1.22653       -0.50306
B          0.70187        2.45248       -0.15146
B          2.32896        2.19716       -0.09297
B          3.99643        1.85780       -0.07799
B          3.36022        3.33053        0.66535
B          1.77690        3.65450        0.39168
B          0.18707        4.05741        0.33214
B         -0.91160        2.87918       -0.18658
B         -1.32736        4.34140        0.13749
B         -3.60073        2.24271       -0.48205
B         -2.52827        3.33810       -0.23359
B         -3.23573        0.51502       -0.85349
B         -4.82630        1.21354       -0.41926
B         -4.57300       -0.40721       -1.14172
B         -2.04041        1.68621       -0.69533
B         -0.52483       -3.04793       -0.65081
B          2.96775        0.66595       -0.65848
B         -1.57900       -0.03042       -0.86411
B          4.98424       -1.32367        0.20315
B         -3.53792       -1.09420        1.70527
B         -4.37141       -0.35285        0.51494
B         -5.94273        0.06578       -0.35908
B         -5.84622        0.27693        1.10671
B         -4.78217       -0.28239        2.07397
B          1.25524        0.87508       -0.52938
B         -0.62809       -1.70318        0.66458
B          0.76324       -1.86875       -1.34017
B          5.82820       -0.11460        0.71728
B          5.47448        1.38134        0.84448
B          4.74108        2.75611        1.00983
B          0.15403       -0.44388       -0.13450
