45
isomer_0258.log	Energy: -113675.8860600
B          2.51011        1.75958       -0.48940
B          2.42866        3.33399        0.04005
B          1.04890        4.15702        0.12317
B         -0.34979        3.38481       -0.51444
B          1.13068        0.84881       -1.04357
B         -1.78507        0.83036       -0.90923
B         -1.74666        4.14453        0.24631
B          3.95682        0.90933       -0.21583
B         -1.80115        2.53291       -0.48849
B          3.81076        2.53640        0.29231
B         -0.33992        4.74572        0.35250
B         -3.09072        3.28126        0.26611
B         -3.17299        1.68089       -0.25999
B         -4.53263        0.79920        0.23608
B         -0.31342       -1.83079       -1.08787
B         -1.72590       -2.55102       -0.43185
B         -3.13000       -1.73243       -0.22299
B         -4.54633       -0.89273        0.14746
B         -4.32733       -2.49851        0.77067
B         -3.00981       -3.33940        0.27806
B         -1.64363       -4.16936        0.25812
B         -0.27013       -3.40262       -0.53817
B         -0.22171       -4.74824        0.35306
B          2.51205       -3.30404        0.03741
B          1.15479       -4.14951        0.10931
B          2.56259       -1.73124       -0.52970
B          3.86871       -2.48573        0.27631
B          3.98367       -0.84615       -0.22433
B          1.18475       -2.57750       -0.78821
B          1.12031        2.58973       -0.76562
B         -3.29384       -0.01550       -0.60931
B          1.16969       -0.85033       -1.06876
B         -4.40594        2.44533        0.74942
B          5.06131        1.73744        0.86459
B          5.19594        0.04319        0.52258
B          5.10398       -1.65301        0.84575
B          6.10400       -0.70828        1.60632
B          6.08394        0.81249        1.61361
B         -1.71846       -0.84340       -0.79097
B          2.60973        0.01577       -0.74562
B         -0.36815        1.82549       -1.11654
B         -5.47141        1.51938        1.30265
B         -5.61936       -0.03239        1.30558
B         -5.37416       -1.56886        1.33896
B         -0.34287       -0.00258       -1.09549
