45
isomer_2580.log	Energy: -113425.7352436
B         -2.29292        1.53261        0.44133
B         -2.13933        3.23043       -0.40416
B         -0.78480        3.96844       -0.48240
B          0.60190        3.32686        0.37487
B         -0.96676        0.87768        1.03725
B          1.97561        0.79196        1.10084
B          2.04988        3.98397       -0.40358
B         -3.79149        0.98107        0.16858
B          2.01649        2.42678        0.38929
B         -3.50993        2.49543       -0.38278
B          0.66494        4.53155       -0.68133
B          3.38986        3.08525       -0.27551
B          3.40431        1.56453        0.36300
B          4.56871        0.49023       -0.27328
B          0.01579       -1.54153        0.79333
B          1.44992       -2.46610        0.37905
B          2.96621       -1.87427        0.28554
B          4.52580       -1.16513        0.00563
B          4.12800       -2.72345       -0.68410
B          2.70443       -3.38984       -0.32915
B          1.26667       -4.03085       -0.43004
B         -0.09200       -3.15359        0.28391
B         -0.16058       -4.44937       -0.66167
B         -2.88935       -3.11520       -0.21241
B         -1.54712       -3.84090       -0.38524
B         -3.01388       -1.70259        0.60975
B         -4.23932       -2.25934       -0.37601
B         -4.15847       -0.72707        0.26005
B         -1.46335       -2.12661        0.21451
B         -0.91171        2.46678        0.42193
B          3.29570       -0.18222        0.61948
B         -2.02144       -0.45169        0.81700
B          4.69534        2.15411       -0.64824
B         -4.98487        1.95115       -0.67580
B         -5.27828        0.32679       -0.20443
B         -5.53430       -1.31926       -0.62404
B         -6.47811       -0.23617       -1.18391
B         -6.21426        1.23106       -1.23000
B          1.66556       -0.85922        0.81238
B         -0.82584       -0.58994        1.88753
B          0.57926        1.80435        1.04475
B          5.75094        1.15302       -1.10199
B          5.73911       -0.40722       -1.14770
B          5.29396       -1.89214       -1.18828
B          0.54971        0.12962        1.67606
