45
isomer_2583.log	Energy: -113488.7895122
B         -2.64496       -1.68787       -1.01495
B         -2.68365       -3.32289       -0.00582
B         -1.24416       -3.76946        0.34281
B          0.23590       -3.34402       -0.54301
B         -1.08679       -0.87807       -0.31271
B          1.72812       -0.86494       -0.86910
B          1.59529       -4.03101        0.41160
B         -3.96612       -0.74874       -0.52725
B          1.63808       -2.48766       -0.28360
B         -3.69743       -2.18896        0.38544
B          0.16885       -4.31646        0.74769
B          3.02647       -3.26898        0.32585
B          3.16938       -1.78510       -0.31173
B          4.60609       -0.88521       -0.01281
B          0.42544        1.57306       -0.35745
B          1.86064        2.40787       -0.19945
B          3.30083        1.64485       -0.27214
B          4.73516        0.76180       -0.29593
B          4.65390        2.43998        0.35146
B          3.26593        3.26453        0.14023
B          1.89708        4.13643        0.25229
B          0.44460        3.28225       -0.03912
B          0.48593        4.79286        0.37555
B         -2.39839        3.45351       -0.04244
B         -0.96444        4.21221        0.18018
B         -2.43151        1.79801       -0.58980
B         -3.79136        2.70575        0.01985
B         -3.91555        1.02409       -0.39758
B         -1.03707        2.49251       -0.14686
B         -1.23343       -2.53180       -0.96095
B          3.28131       -0.06428       -0.71044
B         -1.03789        0.80013       -0.45303
B          4.42708       -2.50289        0.57842
B         -5.14023       -1.40942        0.57144
B         -5.31416        0.18229       -0.03168
B         -5.04592        1.86956        0.50197
B         -6.04696        0.89229        1.23292
B         -6.25308       -0.56709        1.13968
B          1.77955        0.73422       -0.51435
B         -1.93800       -1.96692        0.64924
B          0.33809       -1.66162       -0.97559
B          5.66829       -1.62963        0.88403
B          5.90201       -0.10468        0.77801
B          5.73120        1.45389        0.73917
B         -2.49411        0.09564       -0.74002
