45
isomer_2584.log	Energy: -112000.1174285
B         -2.61908       -1.60647       -0.46219
B         -2.62225       -3.24494       -0.08403
B         -1.22145       -4.08507        0.15839
B          0.24132       -3.26230       -0.39023
B         -1.15336       -0.72439       -0.76632
B          1.72112       -0.77384       -0.85056
B          1.62581       -4.05825        0.29823
B         -4.07164       -0.72231       -0.38818
B          1.63050       -2.37823       -0.29186
B         -4.02402       -2.41521        0.06664
B          0.19632       -4.71208        0.43631
B          3.06357       -3.22127        0.31421
B          3.10159       -1.59940       -0.25033
B          4.56672       -0.79738        0.24791
B          0.30473        1.79240       -0.91461
B          1.69184        2.47711       -0.28704
B          3.14278        1.66129       -0.24709
B          4.58717        0.82153        0.24952
B          4.43917        2.38093        0.49621
B          3.14573        3.28249        0.32067
B          1.72957        4.15555        0.30638
B          0.32543        3.39619       -0.38362
B          0.31705        4.84500        0.44579
B         -2.53766        3.45057       -0.07738
B         -1.11610        4.25456        0.16667
B         -2.57588        1.81330       -0.45880
B         -3.95995        2.65622        0.07167
B         -4.05032        0.96597       -0.38651
B         -1.13538        2.61961       -0.61999
B         -1.19941       -2.44859       -0.62502
B          3.20443       -0.06971       -0.64540
B         -1.13290        0.89507       -0.76471
B          4.37936       -2.35303        0.49152
B         -5.33825       -1.59429        0.57088
B         -5.31466        0.03694        0.33858
B         -5.29451        1.86776        0.57432
B         -6.47208        0.92716        1.17506
B         -6.49169       -0.62544        1.17352
B          1.74191        0.87206       -0.84893
B         -0.63276       -2.89448        0.16329
B          0.26115       -1.65745       -0.91804
B          5.89672       -1.66131        0.70708
B          6.11338        0.04926        0.77387
B          5.93747        1.78159        0.78110
B         -0.40146       -0.09715        0.33302
