45
isomer_2585.log	Energy: -113438.1496462
B         -2.45277       -1.61850       -0.45597
B         -2.33290       -3.28632        0.17578
B         -1.20193       -4.44003       -0.12929
B          0.39446       -3.04063       -0.02982
B         -1.05695       -0.66547       -0.79762
B          1.79224       -0.66393       -0.88433
B          1.76916       -4.02209        0.03665
B         -3.91807       -0.84815       -0.36815
B          1.80142       -2.33549       -0.61875
B         -3.75116       -2.42086        0.23967
B          0.29769       -4.66609        0.16762
B          3.12523       -3.21021       -0.05898
B          3.27532       -1.60029       -0.50164
B          4.68506       -0.74954       -0.19579
B          0.36477        1.79302       -0.99281
B          1.74010        2.55546       -0.40417
B          3.19896        1.81576       -0.24929
B          4.57310        0.88281        0.18300
B          4.39256        2.48505        0.80859
B          3.03817        3.28590        0.44927
B          1.65376        4.11419        0.48613
B          0.30518        3.41005       -0.33476
B          0.24386        4.68430        0.61893
B         -2.56449        3.37600       -0.03870
B         -1.15613        4.13057        0.23980
B         -2.57446        1.80135       -0.64041
B         -3.92887        2.57033        0.10433
B         -3.99931        0.91832       -0.46531
B         -1.15863        2.61635       -0.61416
B         -1.00631       -2.07040        0.16076
B          3.32368        0.14288       -0.72408
B         -1.10756        0.95398       -0.99544
B          4.51147       -2.40319        0.32530
B         -5.08501       -1.65674        0.66237
B         -5.20705        0.02690        0.28524
B         -5.19976        1.73690        0.52029
B         -6.27382        0.78135        1.20207
B         -6.20659       -0.73037        1.27404
B          1.78740        0.96440       -0.98234
B         -2.59203        0.12150       -0.98037
B          0.38753       -1.40277       -0.69843
B          5.56240       -1.49056        0.92654
B          5.78247        0.04344        1.06074
B          5.56972        1.56369        1.20995
B         -0.80192       -3.45287        1.02357
