45
isomer_2586.log	Energy: -113003.1327624
B          2.67276       -1.57973        0.28703
B          2.77644       -3.25279       -0.10896
B          1.37437       -4.17634       -0.22248
B         -0.06627       -3.37372        0.44647
B          1.80492       -0.19452        0.71672
B         -1.80206       -0.74761        1.13596
B         -1.43399       -4.04327       -0.31098
B          3.95361       -0.70787        0.25996
B         -1.59278       -2.45322        0.47972
B          4.11062       -2.28812       -0.27004
B         -0.05368       -4.68415       -0.47727
B         -2.81979       -3.23110       -0.31186
B         -3.05931       -1.71447        0.30086
B         -4.42056       -0.90916       -0.26248
B         -0.46024        1.82640        1.17307
B         -1.82092        2.51820        0.47686
B         -3.19219        1.68556        0.23629
B         -4.50104        0.72858       -0.32389
B         -4.47406        2.37527       -0.71542
B         -3.16006        3.23596       -0.29598
B         -1.81913        4.12635       -0.28393
B         -0.44701        3.45972        0.53144
B         -0.43371        4.73903       -0.42482
B          2.32392        3.40683       -0.08300
B          0.98944        4.17698       -0.13386
B          2.39190        1.69716        0.50728
B          3.65794        2.61247       -0.18968
B          3.81383        1.00818        0.19724
B          1.06124        2.65907        0.74393
B          1.46316       -2.73912        0.60831
B         -3.23944       -0.02068        0.53675
B          1.01918        1.05963        1.10577
B         -4.26767       -2.53377       -0.72411
B          5.37590       -1.40685       -0.65216
B          5.08686        0.24248       -0.41242
B          5.00281        1.90661       -0.73775
B          6.10031        1.05969       -1.40362
B          6.32042       -0.40430       -1.31381
B         -1.80142        0.90770        1.04458
B          1.08971       -1.32580       -0.22814
B          0.02048       -1.71243        0.90173
B         -5.38826       -1.68561       -1.26505
B         -5.66450       -0.13703       -1.27140
B         -5.56107        1.41596       -1.25639
B         -0.93067       -1.52618        1.98953
