45
isomer_2587.log	Energy: -112637.8718360
B          2.63742       -1.62864        0.37919
B          2.63217       -3.25987       -0.02906
B          1.22699       -4.08891       -0.28392
B         -0.23081       -3.26962        0.28284
B          1.17645       -0.74554        0.70260
B         -1.69805       -0.78323        0.79200
B         -1.62040       -4.04635       -0.41721
B          4.09394       -0.75000        0.31838
B         -1.61605       -2.37746        0.20369
B          4.03749       -2.43400       -0.16740
B         -0.19426       -4.70413       -0.57032
B         -3.05427       -3.20258       -0.41475
B         -3.08357       -1.59121        0.17961
B         -4.54596       -0.77339       -0.30068
B         -0.26958        1.77481        0.90026
B         -1.65475        2.47737        0.28832
B         -3.10956        1.66914        0.23644
B         -4.55886        0.84536       -0.27247
B         -4.40409        2.40833       -0.49074
B         -3.10611        3.30051       -0.30138
B         -1.68586        4.16660       -0.27404
B         -0.28388        3.38819        0.39890
B         -0.27043        4.85196       -0.40374
B          2.57881        3.43494        0.08765
B          1.16052        4.24986       -0.13856
B          2.61016        1.79077        0.43880
B          3.99707        2.63690       -0.07900
B          4.08048        0.93810        0.34781
B          1.17377        2.60063        0.61785
B          1.21416       -2.46705        0.52951
B         -3.17847       -0.06859        0.60298
B          1.16355        0.87376        0.73083
B         -4.36635       -2.32514       -0.57326
B          5.35451       -1.61004       -0.65925
B          5.33900        0.01674       -0.39692
B          5.32691        1.85166       -0.59890
B          6.49885        0.91684       -1.21934
B          6.51123       -0.63560       -1.24640
B         -1.71117        0.86250        0.82069
B          0.40884       -2.40452        1.69147
B         -0.24208       -1.67468        0.84012
B         -5.88091       -1.62256       -0.77285
B         -6.08972        0.08994       -0.80770
B         -5.90574        1.82128       -0.78343
B         -0.46141       -0.50311       -0.18858
