45
isomer_2588.log	Energy: -113674.7803331
B         -2.48640        1.76661        0.44725
B         -2.39800        3.35321       -0.05477
B         -1.01045        4.15866       -0.13415
B          0.38289        3.37800        0.50854
B         -1.10955        0.84807        0.96599
B          1.81695        0.82460        0.94479
B          1.79111        4.13743       -0.22614
B         -3.95368        0.94231        0.22121
B          1.82676        2.52231        0.50584
B         -3.78566        2.55750       -0.31535
B          0.38867        4.74392       -0.34812
B          3.12863        3.26206       -0.24888
B          3.18908        1.66194        0.27084
B          4.53414        0.76192       -0.25157
B          0.34294       -0.00791        1.04604
B          1.69282       -2.55985        0.40979
B          3.10162       -1.75621        0.15662
B          4.55137       -0.92921       -0.10391
B          4.30631       -2.52736       -0.78008
B          2.97403       -3.36489       -0.30944
B          1.59861       -4.17824       -0.27000
B          0.24373       -3.40968        0.55980
B          0.16906       -4.74163       -0.35283
B         -2.55120       -3.29061       -0.02454
B         -1.20403       -4.14127       -0.09545
B         -2.58482       -1.71238        0.56687
B         -3.89726       -2.46157       -0.25375
B         -4.00244       -0.82285        0.24414
B         -1.20858       -2.57377        0.78020
B         -1.09359        2.59164        0.73760
B          3.28716       -0.03760        0.60374
B         -1.18131       -0.85357        1.05795
B          4.44723        2.42501       -0.71441
B         -5.04992        1.76869       -0.86955
B         -5.20218        0.07903       -0.50858
B         -5.12898       -1.61944       -0.81556
B         -6.13014       -0.66785       -1.57689
B         -6.09497        0.84928       -1.59645
B          1.70357       -0.84714        0.71200
B         -2.61617        0.03273        0.76055
B          0.38904        1.81634        1.12775
B          5.52665        1.49641       -1.25047
B          5.64103       -0.05938       -1.27544
B          5.35583       -1.58709       -1.32570
B          0.30010       -1.82816        1.07452
