45
isomer_2592.log	Energy: -112616.4872383
B         -2.62346        1.73410        0.41111
B         -2.60561        3.37016        0.04561
B         -1.22680        4.18945       -0.16983
B          0.20394        3.39091        0.36092
B         -1.19491        0.85075        0.71570
B          1.69199        0.88912        0.79314
B          1.56116        4.18017       -0.30324
B         -4.02909        0.90590        0.31410
B          1.58752        2.52221        0.25975
B         -3.96055        2.55746       -0.12006
B          0.15225        4.78132       -0.42282
B          2.99403        3.35836       -0.32891
B          3.06898        1.75346        0.19782
B          4.55016        0.95201       -0.30114
B          0.31251       -1.60435        0.83312
B          1.78288       -2.35651        0.15580
B          3.17638       -1.52711        0.14267
B          4.57863       -0.64632       -0.32595
B          4.50645       -2.21368       -0.62853
B          3.17891       -3.12707       -0.45372
B          1.81360       -4.00661       -0.45195
B          0.46278       -3.26166        0.24077
B          0.32088       -4.73801       -0.60424
B         -2.64624       -3.22709       -0.08638
B         -1.27174       -4.22339       -0.42213
B         -2.66157       -1.50782        0.35813
B         -3.97640       -2.34593       -0.19312
B         -4.03524       -0.72767        0.28627
B         -1.29276       -2.31421        0.53452
B         -1.24397        2.56113        0.58163
B          3.20192        0.19590        0.56694
B         -1.21941       -0.63946        0.69575
B          4.38133        2.54547       -0.54207
B         -5.24533        1.81109       -0.63727
B         -5.24569        0.17295       -0.42981
B         -5.24722       -1.56566       -0.68827
B         -6.34973       -0.63160       -1.27478
B         -6.38743        0.86759       -1.25720
B          1.75671       -0.74011        0.76926
B         -0.56507       -3.48303        0.71973
B          0.21903        1.76834        0.87091
B          5.78577        1.76485       -0.73500
B          5.99660        0.17009       -0.81399
B          5.85021       -1.44450       -0.84368
B         -0.10639       -0.96099        2.18044
