45
isomer_2595.log	Energy: -113449.6768476
B          2.68594        1.51400       -0.63318
B          2.67731        3.24748       -0.08642
B          1.33550        4.05425       -0.07597
B         -0.17591        3.27930       -0.64584
B          1.23945        0.72782       -0.98227
B         -1.64930        0.93758       -0.95774
B         -1.41632        4.07210        0.35194
B          4.02424        0.75001       -0.31625
B         -1.30484        2.29934        0.26554
B          3.95410        2.34327        0.10011
B         -0.03988        4.65332        0.23682
B         -2.75194        3.24485        0.57027
B         -2.91870        1.77127       -0.10596
B         -4.41928        0.94709        0.18938
B         -0.35110       -1.81201       -1.03009
B         -1.82865       -2.54194       -0.59229
B         -3.16807       -1.64002       -0.27696
B         -4.56243       -0.69308       -0.03382
B         -4.48893       -2.36483        0.52003
B         -3.15695       -3.24581        0.18536
B         -1.80450       -4.10035        0.27168
B         -0.36729       -3.37587       -0.38310
B         -0.39353       -4.69435        0.49399
B          2.43016       -3.41099        0.12530
B          1.04868       -4.15818        0.23393
B          2.52857       -1.74185       -0.62826
B          3.72208       -2.57649        0.29056
B          3.90892       -0.98962       -0.19299
B          1.11750       -2.53577       -0.45063
B          1.28698        2.37397       -0.53377
B         -3.18096        0.10952       -0.61001
B          1.20295       -0.97479       -1.09603
B         -4.15468        2.53036        0.85971
B          5.26432        1.50139        0.64676
B          5.23645       -0.16937        0.31768
B          5.03498       -1.76359        0.82297
B          6.09207       -0.86339        1.53080
B          6.23447        0.61491        1.39796
B         -1.76096       -0.85524       -0.89818
B         -0.02500        1.28586        0.20507
B         -0.27147        1.80573       -1.44695
B         -5.39735        1.69257        1.19175
B         -5.65632        0.16516        1.08846
B         -5.53758       -1.39105        1.01777
B         -0.24275       -0.02257       -0.93713
