45
isomer_0026.log	Energy: -113675.8864347
B          2.56287       -1.73088        0.53007
B          2.51320       -3.30371       -0.03740
B          1.15598       -4.14879       -0.11009
B         -0.26934       -3.40262        0.53765
B          1.16990       -0.85057        1.06809
B         -1.71791       -0.84325        0.78853
B         -1.64273       -4.16936       -0.25884
B          3.98420       -0.84581        0.22504
B         -1.72514       -2.55120        0.43125
B          3.86954       -2.48540       -0.27573
B         -0.22055       -4.74772       -0.35412
B         -3.00916       -3.33993       -0.27861
B         -3.12922       -1.73273        0.22108
B         -4.54739       -0.89370       -0.14436
B         -0.36884        1.82532        1.11689
B         -1.80160        2.53264        0.48775
B         -3.17311        1.68043        0.25981
B         -4.53262        0.79826       -0.23678
B         -4.40683        2.44460       -0.74926
B         -3.09145        3.28046       -0.26665
B         -1.74740        4.14386       -0.24720
B         -0.35037        3.38464        0.51396
B         -0.34086        4.74548       -0.35274
B          2.42823        3.33439       -0.03976
B          1.04821        4.15703       -0.12341
B          2.50963        1.75957        0.48857
B          3.81055        2.53677       -0.29220
B          3.95667        0.90987        0.21625
B          1.11970        2.58974        0.76493
B          1.18533       -2.57750        0.78870
B         -3.29383       -0.01567        0.60972
B          1.13008        0.84865        1.04187
B         -4.32691       -2.49896       -0.77028
B          5.10443       -1.65232       -0.84510
B          5.19571        0.04402       -0.52243
B          5.06141        1.73834       -0.86413
B          6.08500        0.81340       -1.61221
B          6.10479       -0.70732       -1.60533
B         -1.78623        0.83056        0.91115
B          2.61003        0.01570        0.74632
B         -0.31315       -1.83071        1.08727
B         -5.37413       -1.56895       -1.33712
B         -5.62065       -0.03286       -1.30376
B         -5.47340        1.51894       -1.30117
B         -0.34266       -0.00269        1.09379
