45
isomer_0260.log	Energy: -112126.0591361
B          2.59970       -1.63257        0.35856
B          2.60101       -3.26671       -0.03789
B          1.19897       -4.10485       -0.27994
B         -0.26034       -3.28907        0.28798
B          1.13572       -0.75474        0.68268
B         -1.73809       -0.80671        0.78633
B         -1.64921       -4.07805       -0.39969
B          4.05130       -0.74684        0.28434
B         -1.65060       -2.40471        0.20913
B          4.00132       -2.43458       -0.18901
B         -0.22041       -4.72950       -0.55498
B         -3.08745       -3.24173       -0.39634
B         -3.12230       -1.62627        0.18651
B         -4.59124       -0.81956       -0.29255
B         -0.32250        1.75944        0.86918
B         -1.71426        2.45035        0.25894
B         -3.16506        1.63422        0.21996
B         -4.61247        0.79926       -0.27595
B         -4.46692        2.36139       -0.50624
B         -3.17272        3.26165       -0.32963
B         -1.75691        4.13528       -0.31543
B         -0.34765        3.36904        0.35628
B         -0.34572        4.82702       -0.45694
B          2.51322        3.42841        0.03080
B          1.08962        4.23429       -0.19439
B          2.55486        1.78700        0.39364
B          3.93482        2.63654       -0.13699
B          4.02916        0.94134        0.30166
B          1.11514        2.59067        0.57382
B          1.18159       -2.47724        0.52183
B         -3.22312       -0.10115        0.59935
B          1.11448        0.86463        0.69930
B         -4.40485       -2.37229       -0.55480
B          5.31162       -1.60737       -0.69317
B          5.28887        0.02116       -0.44252
B          5.26622        1.85449       -0.65766
B          6.44003        0.92129       -1.27703
B          6.46039       -0.63121       -1.29296
B         -1.75967        0.83909        0.80321
B          1.29115       -0.91757        2.55819
B         -0.27727       -1.69021        0.83380
B         -5.92400       -1.67904       -0.75209
B         -6.14192        0.03206       -0.79828
B         -5.96688        1.76446       -0.78739
B          0.74237       -1.10110       -0.19361
