45
isomer_2601.log	Energy: -112190.9135669
B          2.48013        1.74267       -0.52190
B          2.46371        3.38018       -0.13993
B          1.05375        4.19882        0.12208
B         -0.40343        3.35555       -0.41003
B          1.02397        0.83952       -0.80964
B         -1.85176        0.84632       -0.85758
B         -1.79081        4.12929        0.29767
B          3.94650        0.88009       -0.46826
B         -1.77797        2.45067       -0.29628
B          3.87945        2.57110       -0.00888
B         -0.36957        4.80403        0.41929
B         -3.21565        3.27095        0.32977
B         -3.23667        1.64992       -0.23807
B         -4.68331        0.82509        0.27667
B         -0.39830       -1.69838       -0.94552
B         -1.76705       -2.40504       -0.30216
B         -3.22934       -1.61101       -0.24202
B         -4.67967       -0.79395        0.27471
B         -4.50540       -2.35150        0.51583
B         -3.20102       -3.23331        0.32189
B         -1.77233       -4.08514        0.28773
B         -0.38846       -3.30346       -0.41809
B         -0.34807       -4.75378        0.40772
B          2.47877       -3.31584       -0.14804
B          1.07251       -4.14145        0.11198
B          2.48782       -1.67736       -0.52604
B          3.89086       -2.50072       -0.01502
B          3.95029       -0.80832       -0.47030
B          1.05755       -2.50469       -0.67099
B          1.04615        2.56391       -0.66486
B         -3.32173        0.11973       -0.63544
B          1.02761       -0.78007       -0.81160
B         -4.51605        2.38282        0.52157
B          5.21199        1.76876        0.47685
B          5.20973        0.13786        0.24101
B          5.21978       -1.69357        0.47265
B          6.39072       -0.73684        1.06075
B          6.38723        0.81588        1.06263
B         -1.84806       -0.79970       -0.85957
B          3.77052        0.21205        1.60470
B         -0.40606        1.75173       -0.94134
B         -6.02012        1.66811        0.75457
B         -6.21046       -0.04564        0.82005
B         -6.00873       -1.77517        0.82096
B          1.90101       -1.35012        0.20047
