45
isomer_2602.log	Energy: -113638.8020520
B          2.50300       -1.76574        0.46039
B          2.50719       -3.37493       -0.02632
B          1.14499       -4.18209       -0.18879
B         -0.33254       -3.41445        0.37893
B          1.10312       -0.90191        0.88572
B         -1.74043       -0.84538        0.89556
B         -1.69551       -4.15551       -0.38821
B          3.92189       -0.88154        0.20469
B         -1.73739       -2.51797        0.31015
B          3.90100       -2.54370       -0.17816
B         -0.27001       -4.73919       -0.50479
B         -3.07016       -3.28797       -0.35380
B         -3.13796       -1.71812        0.22747
B         -4.51520       -0.81613       -0.19062
B         -0.33798        1.76192        0.83803
B         -1.72610        2.51439        0.28059
B         -3.13070        1.72047        0.25240
B         -4.51045        0.84500       -0.15261
B         -4.45497        2.49012       -0.60254
B         -3.06462        3.30662       -0.31121
B         -1.68696        4.17016       -0.34783
B         -0.32997        3.40509        0.39268
B         -0.25616        4.74625       -0.46516
B          2.51361        3.37624       -0.05223
B          1.16078        4.19020       -0.17105
B          2.52903        1.74981        0.41032
B          3.90600        2.56657       -0.17219
B          3.93784        0.89492        0.20304
B          1.12412        2.59654        0.56551
B          1.11458       -2.60728        0.61893
B         -3.23913       -0.01227        0.59863
B          1.13996        0.88823        0.80261
B         -4.46872       -2.47411       -0.62865
B          5.19207       -1.72291       -0.65440
B          5.19954       -0.01155       -0.41966
B          5.20570        1.72196       -0.62902
B          6.30324        0.75662       -1.26189
B          6.29566       -0.76944       -1.27990
B         -1.73753        0.83174        0.87394
B          2.50847       -0.01369        0.48544
B         -0.36257       -1.80910        0.94265
B         -5.63980       -1.55510       -0.99822
B         -5.80831        0.01716       -0.97949
B         -5.61725        1.58065       -0.99556
B         -0.34138       -0.01061        1.32466
