45
isomer_2603.log	Energy: -113338.8428183
B          2.64010        1.66913       -0.64376
B          2.66334        3.35997       -0.04761
B          1.34676        4.19206        0.02015
B         -0.12380        3.46890       -0.54437
B          1.29958        0.90927       -1.14155
B         -1.62397        0.97267       -0.76809
B         -1.47550        4.27036        0.23116
B          3.91508        0.85256       -0.12139
B         -1.57885        2.64264       -0.43927
B          3.92355        2.48029        0.16421
B         -0.04059        4.80554        0.31440
B         -2.86428        3.48826        0.26659
B         -3.01253        1.87663       -0.20378
B         -4.43919        1.01976        0.13028
B         -0.30949       -1.55036       -1.50941
B         -1.66477       -2.55210       -0.58207
B         -2.93472       -1.55236       -0.15592
B         -4.26422       -0.62227        0.46070
B         -4.17231       -2.23375        0.95728
B         -2.91251       -3.11642        0.38892
B         -1.68799       -4.07552        0.44405
B         -0.40764       -3.94964       -0.72962
B         -0.34763       -4.71718        0.68067
B          2.25392       -3.22660        0.20384
B          0.97699       -4.10950        0.30235
B          2.37636       -1.67271       -0.45275
B          3.57942       -2.38861        0.49751
B          3.74644       -0.86009        0.00405
B          1.01238       -2.62122       -0.74840
B          1.32289        2.59272       -0.80246
B         -3.18041        0.14015       -0.57814
B          1.20266       -0.75081       -1.05262
B         -4.17653        2.66969        0.74669
B          5.17752        1.59519        0.77195
B          5.11967       -0.06675        0.47179
B          4.93034       -1.66630        0.99833
B          6.02467       -0.81080        1.64111
B          6.14285        0.66893        1.53755
B         -1.71554       -0.71808       -0.96794
B         -0.21352        0.09261       -1.05442
B         -0.20803        1.88973       -1.09864
B         -5.19867        1.72893        1.36051
B         -5.43386        0.21546        1.42398
B         -5.26422       -1.34794        1.47269
B         -0.40373       -2.99245       -1.84854
