45
isomer_2604.log	Energy: -113458.2501292
B          2.64446       -1.53800        0.56805
B          2.62430       -3.24275       -0.00869
B          1.32283       -4.06029        0.05441
B         -0.19606       -3.32401        0.78111
B          1.22229       -0.75475        0.92384
B         -1.67643       -0.92011        0.97148
B         -1.46609       -4.09886       -0.23341
B          3.98462       -0.77885        0.27868
B         -1.34307       -2.35054       -0.15248
B          3.90332       -2.35286       -0.18799
B         -0.07593       -4.64444       -0.18100
B         -2.80104       -3.27437       -0.45450
B         -2.97168       -1.80295        0.18635
B         -4.32192       -0.87432       -0.36249
B         -0.32601        1.78433        0.96910
B         -1.80324        2.54466        0.60144
B         -3.15601        1.67740        0.29770
B         -4.54879        0.73526        0.00028
B         -4.45243        2.41692       -0.53485
B         -3.12064        3.28233       -0.15728
B         -1.76772        4.13421       -0.21155
B         -0.33357        3.36797        0.39737
B         -0.35634        4.72039       -0.42128
B          2.46755        3.41487       -0.09313
B          1.08856        4.15926       -0.19903
B          2.55440        1.73134        0.65849
B          3.73979        2.56473       -0.27080
B          3.93561        0.99010        0.21707
B          1.14526        2.50997        0.42002
B          1.19272       -2.38452        0.38228
B         -3.18303       -0.08217        0.59110
B          1.22372        0.93853        1.04427
B         -4.16424       -2.51482       -0.85754
B          5.22832       -1.53112       -0.69800
B          5.21905        0.13191       -0.32885
B          5.05977        1.74247       -0.78697
B          6.11910        0.84094       -1.49604
B          6.22392       -0.64291       -1.41033
B         -1.74239        0.85423        0.86175
B         -0.25038        0.00470        1.08590
B         -0.29062       -1.81371        1.48212
B         -5.35832       -1.64090       -1.27733
B         -5.60867       -0.10970       -1.18674
B         -5.47495        1.45062       -1.08455
B         -0.11001       -1.26020       -0.17802
