45
isomer_2605.log	Energy: -112152.2477575
B          2.58793        1.75006       -0.50156
B          2.57241        3.38134       -0.09377
B          1.16240        4.19926        0.17016
B         -0.29256        3.36822       -0.38668
B          1.13192        0.85525       -0.81500
B         -1.74332        0.87006       -0.88536
B         -1.68361        4.13412        0.32234
B          4.05176        0.88305       -0.45015
B         -1.67011        2.46510       -0.29808
B          3.98515        2.56671        0.03549
B         -0.26176        4.80327        0.46579
B         -3.11071        3.27898        0.32964
B         -3.13114        1.66721       -0.26403
B         -4.58376        0.83796        0.22620
B         -0.29531       -1.67658       -1.00231
B         -1.67076       -2.38991       -0.38099
B         -3.13158       -1.59326       -0.31971
B         -4.58397       -0.78084        0.19856
B         -4.41533       -2.34246        0.41627
B         -3.11158       -3.22436        0.21857
B         -1.68471       -4.07914        0.18207
B         -0.29346       -3.28984       -0.50038
B         -0.26304       -4.75318        0.30258
B          2.57152       -3.31373       -0.20811
B          1.16128       -4.13981        0.02774
B          2.58747       -1.66948       -0.55996
B          3.98447       -2.50437       -0.05111
B          4.05153       -0.80512       -0.47898
B          1.15640       -2.49080       -0.72923
B          1.15708        2.57707       -0.64268
B         -3.21673        0.14374       -0.68630
B          1.13170       -0.76410       -0.84266
B         -4.41470        2.39119        0.49712
B          5.31190        1.75342        0.51884
B          5.30759        0.12648        0.25711
B          5.31144       -1.70841        0.45972
B          6.47999       -0.76408        1.07209
B          6.48020        0.78841        1.09860
B         -1.74354       -0.77573       -0.91346
B          0.89738       -1.46605        2.65940
B         -0.29485        1.77304       -0.94340
B         -5.92226        1.67666        0.70696
B         -6.11721       -0.03743        0.74371
B         -5.91964       -1.76726        0.71874
B          0.47413        0.04536        0.32623
