45
isomer_2606.log	Energy: -113423.3912453
B         -2.52803        1.41721        0.59615
B         -2.73628        3.19718        0.06704
B         -1.46527        4.10668       -0.17552
B          0.07774        3.52485        0.47862
B         -0.95628        0.97063        0.73411
B          1.36308        0.80716        0.70125
B          1.36792        4.16983       -0.52023
B         -3.91545        0.60503        0.41812
B          1.50345        2.60226        0.19685
B         -3.91861        2.20633       -0.02517
B         -0.08625        4.67674       -0.60311
B          2.77211        3.39531       -0.47200
B          2.90552        1.83703        0.09979
B          4.31123        0.99752       -0.08860
B          0.39781       -1.93741        1.36563
B          1.94365       -2.54007        0.78973
B          3.19652       -1.59470        0.41952
B          4.48227       -0.62454        0.03961
B          4.66707       -2.32955       -0.26707
B          3.38117       -3.21070        0.07236
B          2.02886       -3.85247       -0.39952
B          0.48906       -3.15340        0.15830
B          0.67901       -4.19444       -1.04107
B         -2.14600       -3.15448       -0.40845
B         -0.75250       -3.66730       -0.78822
B         -2.47920       -1.92556        0.72101
B         -3.64061       -2.63145       -0.31338
B         -3.78683       -1.08784        0.25049
B         -0.85693       -1.96177       -0.04150
B         -1.29711        2.57645        0.57710
B          3.05999        0.14115        0.58809
B         -1.89895       -0.33788        0.77309
B          4.18458        2.57640       -0.79683
B         -5.24559        1.40065       -0.48883
B         -5.04563       -0.25766       -0.33460
B         -4.97469       -1.89911       -0.79649
B         -6.09404       -0.99312       -1.34582
B         -6.25997        0.48733       -1.15361
B          1.57638       -0.83302        0.78458
B         -1.14768       -1.57965        1.62963
B          0.23912        1.97178        1.07480
B          5.33910        1.69275       -1.13853
B          5.69970        0.19192       -0.95060
B          5.68142       -1.33074       -0.80698
B         -0.11484       -0.45533        0.42025
