45
isomer_2607.log	Energy: -111414.8304455
B         -2.58206       -1.60350       -0.45330
B         -2.59574       -3.23975       -0.06588
B         -1.20051       -4.08653        0.18528
B          0.26853       -3.27532       -0.36381
B         -1.11042       -0.73160       -0.75822
B          1.76395       -0.79806       -0.83398
B          1.64646       -4.07531        0.33309
B         -4.02970       -0.71059       -0.38843
B          1.66250       -2.39871       -0.26648
B         -3.99313       -2.40112        0.07609
B          0.21284       -4.72010        0.47078
B          3.08898       -3.24654        0.34844
B          3.13794       -1.62813       -0.22515
B          4.60626       -0.83174        0.27272
B          0.36258        1.77588       -0.91659
B          1.75184        2.45615       -0.28894
B          3.19793        1.63223       -0.24024
B          4.63605        0.78701        0.26523
B          4.49634        2.34860        0.50268
B          3.20864        3.25658        0.31835
B          1.79758        4.13768        0.29509
B          0.39104        3.38251       -0.39461
B          0.38867        4.83602        0.42657
B         -2.47255        3.45509       -0.09686
B         -1.04707        4.25226        0.14670
B         -2.51914        1.81593       -0.46912
B         -3.89982        2.66979        0.05262
B         -3.99864        0.97752       -0.39624
B         -1.07356        2.61302       -0.63075
B         -1.16681       -2.45468       -0.60731
B          3.25071       -0.10132       -0.62858
B         -1.08063        0.88770       -0.76572
B          4.40925       -2.38488        0.52458
B         -5.30401       -1.56982        0.57193
B         -5.27036        0.05991        0.33048
B         -5.24031        1.89190        0.55592
B         -6.42497        0.96150        1.15861
B         -6.45354       -0.59094        1.16579
B          1.79423        0.84767       -0.84160
B         -2.08982       -0.79207        1.27152
B          0.29911       -1.67362       -0.90063
B          5.92996       -1.70069        0.74056
B          6.15629        0.00896        0.79830
B          5.99035        1.74229        0.79522
B         -0.89525       -1.78118       -1.07411
