45
isomer_2610.log	Energy: -113336.1099731
B         -2.25832        1.74475        0.48945
B         -2.09404        3.42494       -0.27351
B         -0.71237        4.17990       -0.26762
B          0.63748        3.37046        0.39248
B         -0.23618        0.38044        0.26959
B          1.67743        0.71912        0.82069
B          2.10319        4.07616       -0.08546
B         -3.66772        1.13041        0.06910
B          2.00066        2.43109        0.64637
B         -3.40707        2.64026       -0.46270
B          0.75296        4.73961       -0.36046
B          3.37547        3.08180       -0.00154
B          3.24232        1.45449        0.34027
B          4.54590        0.42920        0.01891
B          0.12947       -1.83508        1.49724
B          1.12711       -2.37303        0.00820
B          2.71961       -1.92083        0.02306
B          4.20456       -1.15314       -0.31875
B          3.84044       -2.70326       -1.00736
B          2.40632       -3.34740       -0.67787
B          1.04647       -4.13051       -0.49847
B         -0.06594       -3.36474        0.60004
B         -0.35133       -4.63577       -0.34840
B         -2.87023       -3.09955        0.36818
B         -1.64351       -3.98681        0.13720
B         -2.65617       -1.33536        0.81235
B         -4.02716       -2.13329        0.10907
B         -3.89948       -0.52510        0.30090
B         -1.40989       -2.35343        0.81493
B         -0.89959        2.65091        0.50558
B          3.05821       -0.26548        0.54559
B         -1.17749       -0.69494        1.43511
B          4.65275        2.12075       -0.40551
B         -4.77268        1.95339       -1.02270
B         -4.92165        0.35205       -0.61611
B         -5.24007       -1.27397       -0.57862
B         -6.14572       -0.36412       -1.40797
B         -5.92359        1.11531       -1.63284
B          1.37685       -0.89035        0.91792
B         -1.18453        1.09100        1.36702
B          0.46353        1.75729        0.99925
B          5.62500        1.10711       -0.93483
B          5.57017       -0.46349       -1.13676
B          5.14476       -1.94519       -1.32142
B         -0.13593       -1.15560       -0.12963
