45
isomer_2611.log	Energy: -113252.1040995
B          2.56776        1.73659       -0.49034
B          2.51669        3.39373       -0.07353
B          1.11292        4.18338        0.10991
B         -0.30975        3.41877       -0.45679
B          1.12720        0.90935       -0.87006
B         -1.69232        0.84875       -0.88050
B         -1.70855        4.14598        0.26001
B          4.02594        0.96459       -0.35526
B         -1.73699        2.53188       -0.36834
B          3.87806        2.55889        0.16811
B         -0.29572        4.75069        0.40054
B         -3.09409        3.27060        0.26521
B         -3.15447        1.71159       -0.24619
B         -4.54643        0.84914        0.18386
B         -0.28144       -1.79314       -1.04893
B         -1.72337       -2.43306       -0.18037
B         -3.12199       -1.63954       -0.13851
B         -4.46355       -0.82130        0.22812
B         -4.46150       -2.42396        0.74479
B         -2.99230       -3.20880        0.52761
B         -1.63779       -4.00361        0.51220
B         -0.32382       -3.29296       -0.30242
B         -0.10107       -4.62191        0.49876
B          2.61133       -3.16032        0.05811
B          1.28195       -3.99965        0.27361
B          2.73534       -1.45271       -0.45170
B          4.01673       -2.31038        0.14586
B          4.08334       -0.69396       -0.32253
B          1.35787       -2.27939       -0.60405
B          1.19236        2.59784       -0.67135
B         -3.23395        0.02433       -0.58601
B          1.35687       -0.61892       -0.90186
B         -4.51002        2.52144        0.54597
B          5.14837        1.85359        0.73456
B          5.20191        0.18215        0.53372
B          5.24499       -1.51795        0.77656
B          6.27859       -0.55900        1.47402
B          6.28040        0.96120        1.43376
B         -1.68777       -0.82376       -0.88077
B          0.79442       -3.57105       -1.37260
B         -0.33943        1.76718       -0.98466
B         -5.72184        1.60279        0.91604
B         -5.84458        0.05389        0.97041
B         -5.62219       -1.51094        1.07475
B         -0.20814       -0.10205       -0.64973
