45
isomer_2613.log	Energy: -113532.4649732
B         -1.46130       -1.93344        0.19405
B         -1.34062       -3.58777        0.35758
B          0.07442       -4.28492        0.11610
B          1.18150       -3.55321       -0.99124
B         -1.71802       -0.23371       -0.02634
B          1.55828       -0.77275       -0.79520
B          2.76436       -3.84369       -0.23500
B         -3.01831       -1.36501        0.56429
B          2.39072       -2.34311       -1.03129
B         -2.74621       -2.96114        0.81710
B          1.53844       -4.69816        0.05768
B          3.85021       -2.66424       -0.29810
B          3.17396       -1.13714       -0.24099
B          4.23935        0.09517        0.18797
B          0.11184        1.94939       -1.40863
B          0.38780        2.48124        0.38791
B          1.99957        1.96255        0.35361
B          3.63842        1.67724        0.43765
B          3.07662        2.97011        1.36095
B          1.59001        3.46843        0.97138
B          0.36075        4.26569        0.36398
B         -0.27393        3.45519       -1.06488
B         -0.87955        4.73971       -0.32511
B         -3.12020        2.79939       -0.86167
B         -2.03053        3.88144       -0.90211
B         -2.38336        1.38218       -0.20014
B         -4.12888        1.71334       -0.23331
B         -3.51740        0.22136        0.15129
B         -1.58172        2.24697       -1.37261
B         -0.35313       -2.76485       -0.68582
B          2.58097        0.47223       -0.25206
B         -0.89054        0.62209       -1.38617
B          4.83945       -1.50911        0.24935
B         -4.21284       -2.45632        1.19060
B         -4.55878       -0.80647        0.94115
B         -5.18431        0.68299        0.34589
B         -6.12770       -0.49609        0.86964
B         -5.69366       -1.87479        1.28130
B          0.78014        0.71783       -0.37454
B         -0.75313        1.24473        0.28723
B          0.81995       -2.01752       -1.59275
B          5.62629       -0.33184        0.83578
B          5.20610        1.12375        1.18979
B          4.45193        2.39201        1.62951
B         -0.26696       -0.92978       -0.86384
