45
isomer_2614.log	Energy: -113458.2571272
B          2.64338       -1.53956        0.56743
B          2.62269       -3.24417       -0.00847
B          1.32087       -4.06118        0.05452
B         -0.19786       -3.32426        0.78053
B          1.22210       -0.75507        0.92344
B         -1.67661       -0.91935        0.97168
B         -1.46766       -4.09821       -0.23417
B          3.98305       -0.78009        0.27673
B         -1.34400       -2.34979       -0.15266
B          3.90206       -2.35456       -0.18853
B         -0.07798       -4.64506       -0.18110
B         -2.80224       -3.27295       -0.45562
B         -2.97206       -1.80156        0.18533
B         -4.32326       -0.87273       -0.36148
B         -0.32513        1.78475        0.96956
B         -1.80239        2.54573        0.60188
B         -3.15270        1.67668        0.28946
B         -4.54953        0.73684        0.00414
B         -4.45140        2.41838       -0.53565
B         -3.11845        3.28283       -0.16074
B         -1.76534        4.13448       -0.21324
B         -0.33216        3.36825        0.39711
B         -0.35377        4.72076       -0.42152
B          2.46936        3.41461       -0.09134
B          1.09077        4.15928       -0.19821
B          2.55536        1.73073        0.65956
B          3.74118        2.56401       -0.26967
B          3.93608        0.98933        0.21719
B          1.14662        2.51044        0.42232
B          1.19167       -2.38547        0.38429
B         -3.18246       -0.08112        0.59049
B          1.22461        0.93824        1.04520
B         -4.16575       -2.51345       -0.85717
B          5.22702       -1.53291       -0.69886
B          5.21828        0.13006       -0.32946
B          5.06117        1.74129       -0.78613
B          6.12039        0.83949       -1.49510
B          6.22345       -0.64461       -1.41047
B         -1.74093        0.85491        0.85967
B         -0.24976        0.00509        1.08532
B         -0.29157       -1.81386        1.48173
B         -5.36078       -1.63945       -1.27470
B         -5.61075       -0.10840       -1.18339
B         -5.47534        1.45157       -1.08164
B         -0.11026       -1.25994       -0.17825
