45
isomer_2615.log	Energy: -112538.1157917
B         -2.62392       -1.69425       -0.46393
B         -2.61516       -3.33206       -0.08304
B         -1.20832       -4.16139        0.16154
B          0.24862       -3.32873       -0.38767
B         -1.16461       -0.80184       -0.76875
B          1.71021       -0.83014       -0.85136
B          1.63859       -4.11326        0.30286
B         -4.08303       -0.82075       -0.39218
B          1.63117       -2.43423       -0.29003
B         -4.02312       -2.51248        0.06549
B          0.21391       -4.77742        0.44126
B          3.07011       -3.26563        0.31822
B          3.09642       -1.64445       -0.24901
B          4.55530       -0.83078        0.24868
B          0.27489        1.72543       -0.92045
B          1.65655        2.42144       -0.29328
B          3.11347        1.61645       -0.25119
B          4.56376        0.78824        0.24760
B          4.40408        2.34690        0.49161
B          3.10410        3.23856        0.31387
B          1.68153        4.10109        0.29736
B          0.28343        3.33021       -0.39213
B          0.26386        4.78029        0.43486
B         -2.58016        3.36389       -0.08751
B         -1.16472        4.17879        0.15596
B         -2.60604        1.72575       -0.46622
B         -3.99661        2.55927        0.06210
B         -4.07421        0.86764       -0.39331
B         -1.17146        2.54244       -0.62798
B         -1.19796       -2.52610       -0.62459
B          3.18815       -0.11471       -0.64658
B         -1.15614        0.81773       -0.76983
B          4.37934       -2.38737        0.49478
B         -5.34367       -1.70049        0.56766
B         -5.33203       -0.06952        0.33265
B         -5.32557        1.76180        0.56534
B         -6.49647        0.81350        1.16703
B         -6.50458       -0.73920        1.16806
B          1.71881        0.81586       -0.85246
B         -0.29441       -0.07841        1.71220
B          0.25686       -1.72465       -0.91815
B          5.89142       -1.68408        0.71000
B          6.09536        0.02817        0.77406
B          5.90662        1.75916        0.77830
B          0.01567       -0.01068       -1.08183
