45
isomer_2617.log	Energy: -111171.8100712
B         -2.55613        1.71146        0.35008
B         -2.54023        3.34700       -0.04028
B         -1.12932        4.17211       -0.27552
B          0.32033        3.33982        0.29319
B         -1.10177        0.81799        0.67478
B          1.77212        0.84113        0.78617
B          1.71876        4.11755       -0.38788
B         -4.01621        0.84043        0.26874
B          1.70198        2.44204        0.21471
B         -3.94828        2.52933       -0.19818
B          0.29689        4.78369       -0.54450
B          3.14864        3.26703       -0.38387
B          3.16597        1.64916        0.19306
B          4.62813        0.82972       -0.28515
B          0.33101       -1.71117        0.85575
B          1.71749       -2.41356        0.24660
B          3.17638       -1.61170        0.21447
B          4.63330       -0.78928       -0.27451
B          4.47292       -2.34903       -0.51101
B          3.16942       -3.23708       -0.34115
B          1.74501       -4.09669       -0.33393
B          0.34161       -3.31904        0.33692
B          0.32742       -4.77390       -0.48173
B         -2.51884       -3.34887        0.00370
B         -1.10267       -4.16797       -0.22074
B         -2.54521       -1.70849        0.37254
B         -3.93208       -2.54236       -0.16487
B         -4.01082       -0.84794        0.27983
B         -1.11399       -2.52703        0.55351
B         -1.13018        2.54144        0.52022
B          3.25059        0.12160        0.60047
B         -1.09660       -0.80156        0.68542
B          4.45780        2.38518       -0.54210
B         -5.26535        1.71700       -0.70887
B         -5.25938        0.08742       -0.46422
B         -5.25429       -1.74524       -0.68613
B         -6.41716       -0.79819       -1.30510
B         -6.42211        0.75449       -1.31530
B          1.77737       -0.80486        0.79698
B         -1.59129       -1.34050        0.58849
B          0.31999        1.73887        0.83309
B          5.97054        1.67766       -0.73797
B          6.17165       -0.03532       -0.78996
B          5.97946       -1.76593       -0.78598
B         -1.64286        1.02359        2.11025
