45
isomer_2619.log	Energy: -111941.5106802
B          2.63651       -1.70125        0.36934
B          2.62472       -3.33915       -0.01110
B          1.21637       -4.16581       -0.25600
B         -0.23917       -3.33017        0.29238
B          1.17881       -0.80592        0.67331
B         -1.69609       -0.82862        0.75477
B         -1.63038       -4.11219       -0.39849
B          4.09734       -0.83060        0.29793
B         -1.61994       -2.43301        0.19393
B          4.03433       -2.52235       -0.15928
B         -0.20693       -4.77916       -0.53612
B         -3.06024       -3.26179       -0.41467
B         -3.08364       -1.64041        0.15209
B         -4.54073       -0.82405       -0.34642
B         -0.25584        1.72418        0.82372
B         -1.63589        2.42269        0.19579
B         -3.09435        1.62052        0.15334
B         -4.54605        0.79499       -0.34580
B         -4.38325        2.35327       -0.59019
B         -3.08161        3.24246       -0.41217
B         -1.65737        4.10222       -0.39533
B         -0.26105        3.32883        0.29494
B         -0.23833        4.77863       -0.53245
B          2.60272        3.35686       -0.00852
B          1.18897        4.17444       -0.25280
B          2.62527        1.71878        0.37065
B          4.01767        2.54945       -0.15734
B          4.09179        0.85780        0.29858
B          1.19221        2.53830        0.53161
B          1.20887       -2.53029        0.52966
B         -3.17256       -0.11037        0.54919
B          1.17348        0.81366        0.67393
B         -4.36769       -2.38104       -0.59201
B          5.35665       -1.71306       -0.66115
B          5.34809       -0.08200       -0.42661
B          5.34528        1.74926       -0.65982
B          6.51458        0.79852       -1.26076
B          6.51968       -0.75420       -1.26136
B         -1.70150        0.81740        0.75540
B         -0.03431        1.39255        1.82352
B         -0.24451       -1.72593        0.82240
B         -5.87832       -1.67487       -0.80804
B         -6.07891        0.03774       -0.87267
B         -5.88681        1.76836       -0.87731
B         -0.37787       -1.39466        1.67992
