45
isomer_0262.log	Energy: -113452.9902683
B         -2.63486       -1.65610       -0.61283
B         -2.55649       -3.25895       -0.04942
B         -1.12696       -4.09173        0.01488
B          0.25055       -3.28533       -0.44983
B         -1.32753       -0.75446       -1.07722
B          1.89587       -0.87863       -1.34809
B          1.67863       -4.11465        0.15161
B         -3.94488       -0.83138       -0.06676
B          1.78652       -2.50591       -0.61982
B         -3.91083       -2.44719        0.18478
B          0.25282       -4.73600        0.18760
B          2.96527       -3.25031        0.33910
B          2.76454       -1.49400        0.35326
B          4.32713       -0.76594        0.38831
B          0.23370        1.78372       -0.99713
B          1.67747        2.55053       -0.55006
B          3.10258        1.71371       -0.31384
B          4.52399        0.86723       -0.08986
B          4.30615        2.48991        0.57650
B          2.98977        3.34483        0.12971
B          1.63566        4.16784        0.16714
B          0.21302        3.37626       -0.51822
B          0.21147        4.74491        0.32600
B         -2.55656        3.28697        0.13696
B         -1.17082        4.13749        0.14409
B         -2.63777        1.69294       -0.51514
B         -3.85703        2.45397        0.36515
B         -3.95374        0.86044       -0.04483
B         -1.25049        2.53742       -0.63173
B         -1.24420       -2.48372       -0.69965
B          3.17475       -0.02289       -0.64708
B         -1.32133        0.84862       -1.04923
B          4.24596       -2.43694        0.83609
B         -5.24682       -1.66345        0.68179
B         -5.31984        0.00985        0.25545
B         -5.22944        1.62017        0.79949
B         -6.31147        0.71799        1.38243
B         -6.29987       -0.77531        1.34307
B          1.62550        0.76717       -0.65150
B          1.27131       -0.80295        0.28884
B          0.30378       -1.68227       -0.99325
B          5.39175       -1.54094        1.27237
B          5.60383        0.01290        1.20096
B          5.31003        1.50047        1.17295
B          0.15888       -0.00628       -0.77306
