45
isomer_2621.log	Energy: -113392.1080283
B         -2.46216        1.80552        0.47150
B         -2.36667        3.43616       -0.06556
B         -0.99253        4.22408       -0.18177
B          0.42019        3.41397        0.46081
B         -1.13619        0.92442        1.00171
B          1.80782        0.83918        0.97142
B          1.79996        4.15670       -0.27261
B         -3.82227        1.02327        0.12309
B          1.84280        2.54588        0.55710
B         -3.76339        2.65624       -0.18778
B          0.42124        4.78518       -0.39635
B          3.13987        3.23999       -0.27376
B          3.21167        1.69377        0.27043
B          4.56133        0.73523       -0.19122
B          0.30321       -1.70079        0.97718
B          1.70731       -2.51769        0.53556
B          3.11553       -1.73856        0.27677
B          4.54884       -0.91493       -0.08459
B          4.30984       -2.53450       -0.69788
B          2.92948       -3.31546       -0.27866
B          1.52647       -4.10883       -0.27538
B          0.18641       -3.26344        0.39707
B          0.10520       -4.66919       -0.35818
B         -2.55502       -3.08029       -0.75573
B         -1.33486       -4.07057       -0.02791
B         -2.60865       -1.58398        0.52701
B         -3.77235       -2.24187       -0.56281
B         -3.89513       -0.68586        0.15138
B         -1.19355       -2.36135        0.68400
B         -1.07781        2.64777        0.64695
B          3.32683       -0.02976        0.64885
B         -1.21078       -0.64283        0.91786
B          4.44568        2.37530       -0.74175
B         -5.11591        1.91976       -0.64572
B         -5.20445        0.22821       -0.23092
B         -5.18281       -1.35011       -0.76954
B         -6.25078       -0.42577       -1.34549
B         -6.16963        1.06906       -1.31939
B          1.74244       -0.79317        0.89293
B         -2.57445       -3.31051        0.77628
B          0.39316        1.87780        1.07467
B          5.50119        1.43147       -1.28366
B          5.64564       -0.11620       -1.26468
B          5.39825       -1.65295       -1.24498
B          0.29905        0.07965        1.09374
