45
isomer_2624.log	Energy: -113453.4768291
B         -2.88555        0.98363        0.36243
B         -2.86801        2.65019       -0.60476
B         -1.59272        3.49126       -0.76208
B         -0.14538        3.06535        0.06982
B         -1.36285        0.36451        0.63182
B          1.62227        0.82925        0.73103
B          1.21336        3.95693       -0.60837
B         -4.45161        0.91232        0.82278
B          1.44319        2.43349        0.15940
B         -4.20458        2.04876       -0.27506
B         -0.23072        4.24130       -0.98308
B          2.72025        3.38036       -0.33089
B          2.96583        1.89072        0.39854
B          4.53219        1.19017        0.28255
B          0.52434       -2.23134        1.19322
B          1.94712       -2.48499        0.29062
B          3.20747       -1.47101        0.23058
B          4.54264       -0.46318       -0.07010
B          4.68896       -2.05636       -0.61032
B          3.31095       -2.92930       -0.53510
B          1.93887       -3.63964       -0.99815
B          0.52219       -3.40046        0.01293
B          0.53985       -3.97947       -1.46435
B         -2.19762       -2.72150       -0.73632
B         -0.88475       -3.49823       -1.09630
B         -2.21878       -1.22171        0.48180
B         -3.53911       -2.05599       -0.40497
B         -3.81201       -0.61799        0.36073
B         -0.94119       -2.42786        0.19026
B         -1.47637        1.89633       -0.05376
B          3.20466        0.17750        0.75422
B         -0.85069       -1.15943        1.37470
B          4.21104        2.77322       -0.41811
B         -5.74022        1.41826       -0.14488
B         -5.50714       -0.20952        0.25867
B         -5.02803       -1.64644       -0.49310
B         -6.35262       -0.97937       -0.91109
B         -6.73874        0.43115       -0.69965
B          1.83590       -0.86662        1.24053
B          0.24378        0.17199        1.57590
B          0.04667        1.50732        0.64659
B          5.46642        1.97960       -0.74947
B          5.85367        0.48439       -0.70213
B          5.82949       -1.08595       -0.78053
B          0.61757       -1.13163        2.36346
