45
isomer_2625.log	Energy: -113675.8864033
B         -2.50928        1.75978        0.48896
B         -2.42768        3.33478       -0.03963
B         -1.04769        4.15721       -0.12304
B          0.35094        3.38467        0.51411
B         -1.12974        0.84881        1.04215
B          1.78655        0.83032        0.91139
B          1.74814        4.14419       -0.24636
B         -3.95631        0.91031        0.21547
B          1.80210        2.53264        0.48845
B         -3.80983        2.53725       -0.29227
B          0.34153        4.74568       -0.35242
B          3.09200        3.28050       -0.26623
B          3.17345        1.68026        0.26013
B          4.53226        0.79785       -0.23753
B          0.31253       -1.83088        1.08783
B          1.72454       -2.55137        0.43153
B          3.12873       -1.73340        0.22079
B          4.54669       -0.89395       -0.14540
B          4.32635       -2.49926       -0.77068
B          3.00848       -3.34032       -0.27878
B          1.64197       -4.16972       -0.25826
B          0.26906       -3.40303        0.53898
B          0.21994       -4.74792       -0.35324
B         -2.51346       -3.30369       -0.03715
B         -1.15651       -4.14900       -0.10924
B         -2.56310       -1.73051        0.53007
B         -3.86951       -2.48506       -0.27637
B         -3.98423       -0.84561        0.22446
B         -1.18583       -2.57749        0.78842
B         -1.11927        2.58992        0.76524
B          3.29360       -0.01611        0.60903
B         -1.16997       -0.85032        1.06809
B          4.40702        2.44435       -0.74925
B         -5.06070        1.73868       -0.86456
B         -5.19600        0.04447       -0.52245
B         -5.10454       -1.65184       -0.84548
B         -6.10488       -0.70673       -1.60570
B         -6.08453        0.81403       -1.61278
B          1.71779       -0.84352        0.78884
B         -2.60984        0.01593        0.74593
B          0.36923        1.82526        1.11693
B          5.47338        1.51849       -1.30156
B          5.62015       -0.03335       -1.30461
B          5.37348       -1.56955       -1.33807
B          0.34298       -0.00274        1.09428
