45
isomer_2626.log	Energy: -113434.6912388
B          2.60175       -1.63279        0.67686
B          2.51693       -3.23884        0.05712
B          1.16361       -4.11660       -0.04709
B         -0.31086       -3.37812        0.49396
B          1.12934       -0.84044        1.03632
B         -1.56563       -0.74930        0.09478
B         -1.64305       -4.14475       -0.34720
B          4.01898       -0.80144        0.41931
B         -1.70201       -2.50557        0.27691
B          3.87597       -2.36368       -0.14900
B         -0.22980       -4.71958       -0.36875
B         -3.05245       -3.30153       -0.37264
B         -3.07202       -1.69214       -0.06239
B         -4.53967       -0.82299       -0.01410
B         -0.25328        1.63807        0.62401
B         -1.68413        2.49277        0.51683
B         -3.12006        1.75576        0.40435
B         -4.40359        0.83491       -0.26180
B         -4.42502        2.53315       -0.45552
B         -3.00848        3.30130       -0.11436
B         -1.62214        4.18779       -0.11598
B         -0.24069        3.26336        0.19702
B         -0.20627        4.77179       -0.26651
B          2.59696        3.26166       -0.08152
B          1.21743        4.10190       -0.17855
B          2.66981        1.57863        0.35959
B          3.99636        2.41726       -0.25243
B          4.10249        0.87345        0.41208
B          1.27628        2.45271        0.32751
B          1.21009       -2.55913        0.68106
B         -3.13067       -0.00712        0.46937
B          1.21140        0.69306        0.59433
B         -4.42490       -2.46782       -0.70919
B          5.15005       -1.65773       -0.68039
B          5.31301       -0.00692       -0.33604
B          5.28996        1.67055       -0.68914
B          6.39304        0.71722       -1.29396
B          6.30233       -0.76946       -1.33277
B         -1.69159        0.75691        1.08182
B         -0.32699       -0.07713        1.57959
B         -0.35574       -1.73497        0.93898
B         -5.51602       -1.48032       -1.07391
B         -5.74455        0.07895       -0.97904
B         -5.58952        1.64668       -0.90295
B         -0.17668        0.04050       -0.15656
