45
isomer_2627.log	Energy: -113853.0433611
B         -2.85388       -1.02857       -0.71167
B         -2.63966       -2.28411        0.67229
B         -1.34741       -3.21828        0.77462
B         -0.05219       -2.76411       -0.18541
B         -1.45202       -0.30424       -1.33922
B          1.67219       -0.74214       -1.68127
B          1.32550       -3.78236        0.11658
B         -4.40735       -0.30058       -0.28800
B          1.48834       -2.40240       -0.90643
B         -4.01802       -2.13576       -0.16043
B         -0.08512       -4.05527        0.73051
B          2.76203       -3.19653       -0.22547
B          2.93810       -1.65080       -0.85090
B          4.07622       -0.82030        0.09299
B         -0.00782        1.53827       -1.12641
B          1.07292        2.33572       -0.09955
B          2.42901        1.44090        0.39809
B          4.05871        0.88025        0.18562
B          3.52434        2.22084        1.35036
B          2.15495        2.94808        1.05142
B          0.64596        3.70799        0.80335
B          0.02360        3.30991       -0.91397
B         -0.78081        4.18156        0.39854
B         -0.70679        2.44144        0.60391
B         -1.66657        3.48705       -0.65835
B         -1.79994        1.43321       -0.61440
B         -1.45883        1.07266        1.15818
B         -3.12300        0.65578        0.02990
B         -1.33143        2.55809       -1.90622
B         -1.26067       -1.51560        0.01113
B          2.84870        0.08481       -0.65526
B         -1.10332        1.03666       -2.34785
B          4.22550       -2.49612        0.06672
B         -5.31294       -1.61182        0.45067
B         -3.57818       -0.94514        1.18975
B         -2.86260        0.63221        1.75554
B         -4.33596        0.63945        1.48000
B         -5.45814       -0.33882        1.11864
B          1.16358        0.45479       -0.41049
B         -0.45996        0.13034        0.23381
B          0.15621       -1.20027       -0.85645
B          5.29426       -1.64094        0.68805
B          5.24763       -0.08826        1.09837
B          4.73966        1.28230        1.56540
B          0.25520        0.05013       -2.08671
