45
isomer_2629.log	Energy: -112747.2674167
B         -2.68255       -1.66548       -0.41801
B         -2.63117       -3.34782        0.00407
B         -1.19529       -4.14846        0.20556
B          0.25427       -3.38006       -0.35582
B         -1.01486       -0.59841       -0.78570
B          1.75429       -0.86040       -0.86324
B          1.60957       -4.12784        0.37904
B         -3.98827       -0.80867       -0.30906
B          1.66734       -2.49550       -0.25793
B         -3.94659       -2.48489        0.15217
B          0.19549       -4.70417        0.50095
B          3.01252       -3.31332        0.40032
B          3.10274       -1.71364       -0.19600
B          4.55649       -0.86684        0.29587
B          0.36082        1.75110       -0.93221
B          1.75729        2.45085       -0.29865
B          3.15643        1.62743       -0.24410
B          4.56149        0.77818        0.26362
B          4.47563        2.36629        0.53062
B          3.12204        3.24274        0.30289
B          1.73503        4.10764        0.28274
B          0.35797        3.37029       -0.39174
B          0.33952        4.72427        0.39364
B         -2.48505        3.38776       -0.05899
B         -1.06742        4.19468        0.14729
B         -2.51870        1.75154       -0.40394
B         -3.86624        2.52136        0.11283
B         -3.96151        0.89644       -0.31461
B         -1.07447        2.60670       -0.61477
B         -1.15338       -2.59721       -0.61598
B          3.22512       -0.11725       -0.62140
B         -1.01759        0.89588       -0.79644
B          4.42662       -2.46451        0.61539
B         -5.20272       -1.64116        0.67520
B         -5.16028       -0.00972        0.41709
B         -5.12671        1.71719        0.61625
B         -6.22012        0.83437        1.21974
B         -6.27985       -0.66874        1.26763
B          1.78581        0.81994       -0.86563
B         -1.51919       -1.17482       -1.54003
B          0.36822       -1.71964       -0.97628
B          5.75630       -1.61674        0.79247
B          5.93982       -0.03139        0.79953
B          5.79047        1.55895        0.77280
B         -1.19937        0.95310        0.71286
