45
isomer_2630.log	Energy: -112054.5971825
B         -2.62515       -1.53146       -0.49860
B         -2.65482       -3.18915       -0.14108
B         -1.26849       -4.04832        0.10908
B          0.22360       -3.24640       -0.42308
B         -1.15976       -0.64831       -0.78450
B          1.75338       -0.76521       -0.86425
B          1.59344       -4.06102        0.26603
B         -4.04901       -0.62931       -0.41992
B          1.64392       -2.37895       -0.30900
B         -4.02946       -2.32546        0.01562
B          0.14591       -4.68627        0.38692
B          3.04977       -3.24444        0.29739
B          3.11713       -1.61872       -0.25617
B          4.58739       -0.83514        0.25456
B          0.35351        1.81922       -0.90779
B          1.75455        2.47878       -0.26998
B          3.19323        1.64657       -0.23044
B          4.62428        0.78533        0.26579
B          4.49715        2.34824        0.52925
B          3.20798        3.25955        0.35089
B          1.80413        4.14726        0.33871
B          0.39460        3.41694       -0.36098
B          0.40334        4.84304        0.47768
B         -2.46377        3.50757       -0.06120
B         -1.03514        4.28269        0.19154
B         -2.52695        1.87470       -0.46057
B         -3.88843        2.72943        0.07375
B         -4.00191        1.05724       -0.40095
B         -1.07965        2.66207       -0.60857
B         -1.22541       -2.40785       -0.66180
B          3.23957       -0.07956       -0.64211
B         -1.10446        0.94732       -0.76939
B          4.38810       -2.39712        0.49137
B         -5.32605       -1.48608        0.52358
B         -5.27513        0.14541        0.30784
B         -5.22925        1.95829        0.56177
B         -6.41033        1.04039        1.14627
B         -6.45888       -0.50578        1.13187
B          1.79041        0.88095       -0.84619
B         -2.11706       -2.60965        1.19759
B          0.29257       -1.63182       -0.95815
B          5.89135       -1.70577        0.71425
B          6.12095       -0.01018        0.79086
B          5.96802        1.70104        0.80885
B         -0.10917       -1.49005       -0.35675
