45
isomer_2632.log	Energy: -113458.7491555
B          2.56830       -1.60799        0.43687
B          2.52353       -3.31427       -0.04963
B          1.22527       -4.12583        0.18737
B         -0.23209       -3.32987        0.94027
B          1.21671       -0.73996        0.83060
B         -1.57931       -0.75214        0.51419
B         -1.55711       -4.14094       -0.00579
B          3.89497       -0.85420        0.10497
B         -1.41005       -2.41362        0.04989
B          3.80500       -2.45363       -0.31184
B         -0.18219       -4.71675        0.07760
B         -2.87450       -3.28640       -0.30053
B         -3.00106       -1.71829        0.10947
B         -4.46269       -0.86729       -0.10799
B         -0.32555        1.81910        1.21059
B         -1.70921        2.56998        0.47562
B         -3.08742        1.74678        0.22305
B         -4.36021        0.78807       -0.39838
B         -4.33493        2.46529       -0.76452
B         -3.01565        3.32283       -0.26856
B         -1.64725        4.15939       -0.19956
B         -0.27355        3.43710        0.65396
B         -0.22293        4.70712       -0.31681
B          2.53874        3.38204        0.05386
B          1.19016        4.14651       -0.02142
B          2.54975        1.66103        0.63482
B          3.79914        2.51309       -0.20157
B          3.90715        0.91216        0.15503
B          1.20165        2.57700        0.74327
B          1.08670       -2.40794        0.25656
B         -3.15000        0.00010        0.49948
B          1.20252        0.93719        1.06784
B         -4.20912       -2.50234       -0.76259
B          5.11938       -1.60972       -0.86827
B          5.15376        0.03549       -0.44765
B          5.09366        1.68934       -0.77067
B          6.12756        0.79646       -1.51963
B          6.13299       -0.70010       -1.55454
B         -1.74925        0.92427        0.98509
B         -0.24676        0.00415        1.24584
B         -0.28799       -1.73375        1.45892
B         -5.31395       -1.56254       -1.26319
B         -5.57437       -0.04000       -1.27057
B         -5.42942        1.53700       -1.27757
B         -0.10040       -1.25392       -0.23387
