45
isomer_2635.log	Energy: -113427.5133293
B         -2.45046       -1.02478       -0.91243
B         -3.33758       -3.37453        0.57769
B         -2.07443       -4.20784        0.51217
B         -0.64684       -3.30185       -0.14146
B         -1.13570       -0.29673       -1.46391
B          1.68054       -0.81612       -1.24622
B          0.70073       -4.20793        0.17356
B         -3.73873       -0.35396       -0.28113
B          0.87224       -2.46318       -0.67333
B         -3.70805       -1.94558        0.11606
B         -0.62854       -4.79682        0.44708
B          2.06972       -3.42316        0.12577
B          2.53651       -1.99061       -0.28493
B          4.01032       -1.36855        0.42369
B          0.70847        2.02470       -1.18812
B          2.21692        2.49710       -0.49317
B          3.40616        1.38336       -0.19827
B          4.58877        0.17243        0.15273
B          4.66440        1.80242        0.84799
B          3.57915        2.92647        0.40977
B          2.33543        3.93145        0.46613
B          0.89179        3.54266       -0.47692
B          0.98356        4.59940        0.71627
B         -1.92194        3.68355        0.21516
B         -0.49994        4.29181        0.38091
B         -2.19577        2.15655       -0.67828
B         -3.28173        2.87961        0.42158
B         -3.51895        1.33964       -0.17345
B         -0.69274        2.83534       -0.48644
B         -2.27705       -2.74546       -0.42854
B          3.18607       -0.35209       -0.63340
B         -0.93897        1.33071       -1.28423
B          3.49491       -2.96259        0.76955
B         -4.93041       -1.06848        0.73562
B         -4.87732        0.61119        0.45531
B         -4.62505        2.20392        0.92924
B         -5.71605        1.34054        1.63133
B         -5.85607       -0.14941        1.54167
B          1.94135        0.87369       -0.91351
B          0.42322        0.35890       -1.55934
B          0.31108       -1.33250       -1.81635
B          4.73995       -2.37517        1.41367
B          5.28095       -0.91799        1.46441
B          5.41059        0.62394        1.44925
B         -0.98050       -1.93402       -1.04319
