45
isomer_2637.log	Energy: -113489.6549250
B          2.17701        2.17613       -0.49250
B          1.74244        3.69369        0.18622
B          0.27337        4.33704        0.11101
B         -0.96002        3.36227       -0.64247
B          0.99078        1.17057       -1.21588
B         -1.87162        0.55708       -0.93954
B         -2.44882        3.85658        0.10015
B          3.67387        1.61004       -0.04762
B         -2.20172        2.25427       -0.72040
B          3.05827        2.96065        0.74072
B         -1.20598        4.70203        0.23803
B         -3.62308        2.74247        0.10374
B         -3.40549        1.17832       -0.32562
B         -4.62439       -0.00495        0.02901
B          0.07297       -1.68538       -1.36129
B         -1.06298       -2.58764       -0.43847
B         -2.59246       -2.14320       -0.12466
B         -4.04607       -1.50113        0.49004
B         -3.53558       -3.04145        1.04783
B         -2.02256       -3.50364        0.56423
B         -0.44582       -3.99486        0.50871
B          0.57181       -2.96996       -0.36990
B          1.03881       -4.24210        0.46693
B          3.43885       -2.30406        0.34308
B          2.25235       -3.37038       -0.07185
B          2.88535       -0.93828       -1.21133
B          4.38904       -1.51212       -0.79642
B          3.98500        0.06241       -0.47265
B          1.67812       -2.12365       -1.34928
B          0.68954        2.83576       -0.70696
B         -3.18182       -0.55854       -0.62040
B          1.33621       -0.35949       -1.35367
B         -4.72783        1.67939        0.60149
B          4.02412        2.14386        1.63480
B          4.20975        0.53209        1.12718
B          4.47774       -1.15700        0.91900
B          5.04317       -0.35390        2.17881
B          4.85266        1.08941        2.48736
B         -1.53105       -1.03129       -1.09942
B          3.27883       -2.62251       -1.28751
B         -0.66534        1.83622       -1.20073
B         -5.50915        0.54942        1.25091
B         -5.38606       -0.97803        1.40915
B         -4.82463       -2.42678        1.53863
B         -0.26758        0.08063       -1.22846
