45
isomer_2638.log	Energy: -113438.1261466
B         -2.50358        1.51635        0.81832
B         -2.59507        3.22558       -0.04028
B         -1.29712        3.98824       -0.39458
B          0.14712        3.21628        0.11691
B         -1.19993        0.87928        1.53895
B          1.71449        0.81475        0.78455
B          1.53484        4.04054       -0.49351
B         -3.95168        0.77666        0.41010
B          1.67326        2.52078        0.43791
B         -3.83598        2.34310        0.03586
B          0.11554        4.56766       -0.71663
B          2.95597        3.31705       -0.30678
B          3.09057        1.74361        0.28991
B          4.57962        0.92786        0.19425
B          0.30855       -1.80944        0.98948
B          1.76075       -2.49203        0.47043
B          3.16332       -1.67997        0.33714
B          4.51579       -0.71313       -0.12470
B          4.46671       -2.37802       -0.58681
B          3.08509       -3.18757       -0.29286
B          1.72307       -4.07880       -0.37945
B          0.33372       -3.32678        0.31939
B          0.34450       -4.66998       -0.58979
B         -2.43197       -3.28993       -0.28319
B         -1.06393       -4.08724       -0.41491
B         -2.48757       -1.65470        0.24973
B         -3.81193       -2.47409       -0.36527
B         -3.92259       -0.94567        0.19965
B         -1.14754       -2.56436        0.51145
B         -1.26407        2.20577       -0.19972
B          3.25739        0.03307        0.72859
B         -1.17814       -0.77630        0.72765
B          4.36290        2.53902       -0.53955
B         -5.22352        1.57587       -0.36847
B         -5.27221       -0.08031       -0.08839
B         -5.21606       -1.67741       -0.67655
B         -6.34265       -0.75721       -1.15413
B         -6.33049        0.72794       -1.05477
B          1.77727       -0.82235        1.09873
B         -1.03669        0.63079       -0.16270
B          0.18146        1.70479        0.82260
B          5.40782        1.58810       -1.03484
B          5.74292        0.06589       -0.99642
B          5.62724       -1.47105       -0.98760
B          0.24280       -0.01264        1.17030
