45
isomer_2639.log	Energy: -112103.9265433
B         -2.60304       -1.64038       -0.46472
B         -2.60514       -3.28077       -0.09494
B         -1.20384       -4.12090        0.14457
B          0.25874       -3.29406       -0.39839
B         -1.13780       -0.75548       -0.76289
B          1.73680       -0.80198       -0.84453
B          1.64325       -4.09231        0.28736
B         -4.05645       -0.75789       -0.38763
B          1.64705       -2.40928       -0.29413
B         -4.00779       -2.45304        0.05858
B          0.21420       -4.74808        0.42068
B          3.08026       -3.25417        0.30904
B          3.11741       -1.62939       -0.24716
B          4.58134       -0.82865        0.25662
B          0.31822        1.76331       -0.89687
B          1.70411        2.44602       -0.26443
B          3.15573        1.63127       -0.22722
B          4.60037        0.79025        0.26652
B          4.45075        2.34823        0.52104
B          3.15670        3.24955        0.34882
B          1.73978        4.12143        0.33760
B          0.33699        3.36439       -0.35767
B          0.32652        4.80893        0.47913
B         -2.52645        3.41469       -0.05399
B         -1.10583        4.21867        0.19558
B         -2.56285        1.77936       -0.44380
B         -3.94819        2.61834        0.08959
B         -4.03661        0.93038       -0.37730
B         -1.12290        2.58774       -0.59945
B         -1.18246       -2.48042       -0.63045
B          3.21929       -0.09761       -0.63431
B         -1.11877        0.86397       -0.75298
B          4.39511       -2.38569        0.49208
B         -5.32323       -1.63587        0.56571
B         -5.30085       -0.00345        0.34177
B         -5.28254        1.82617        0.58689
B         -6.45987        0.88147        1.18165
B         -6.47812       -0.67111        1.17216
B          1.75615        0.84390       -0.83447
B         -1.09325       -1.50471        1.22728
B          0.27768       -1.68651       -0.91797
B          5.91165       -1.69375        0.71268
B          6.12674        0.01665        0.78843
B          5.94930        1.74876        0.80434
B         -0.54816       -0.02801       -1.10283
