45
isomer_0264.log	Energy: -113413.7507885
B          2.41532       -1.84265        0.53438
B          1.99893       -3.27883       -0.22245
B          0.42296       -3.62018       -0.45542
B         -0.89695       -2.91272        0.36079
B          1.29231       -0.85540        1.24928
B         -1.60111       -0.54524        1.22824
B         -2.39556       -3.41779       -0.80752
B          3.82938       -1.22141        0.00103
B         -2.66054       -3.11367        0.77190
B          3.46526       -2.75691       -0.43268
B         -0.96863       -3.88208       -0.93682
B         -3.76117       -2.69595       -0.42655
B         -3.01366       -1.44018        0.56088
B         -4.27465       -0.63882       -0.36750
B          0.11302        1.89053        1.16064
B         -1.24481        2.70067        0.47401
B         -2.64005        1.91955        0.04818
B         -4.04011        1.11895       -0.56440
B         -3.81589        2.83202       -0.82366
B         -2.39515        3.49229       -0.42859
B         -0.96375        4.23784       -0.34578
B          0.29976        3.40619        0.52750
B          0.48302        4.70373       -0.43121
B          3.04982        3.00723       -0.03905
B          1.78897        3.98781       -0.14841
B          2.92384        1.42009        0.61921
B          4.24656        2.03501       -0.26455
B          4.10713        0.43244        0.07513
B          1.66399        2.45065        0.78284
B          0.90117       -2.51458        0.76977
B         -2.93971        0.19184        0.31098
B          1.51555        0.75850        1.20587
B         -5.10065       -2.04371       -0.80277
B          4.92937       -2.17824       -0.89986
B          5.32077       -0.60287       -0.32904
B          5.45650        1.04934       -0.77387
B          6.34065        0.02883       -1.47994
B          6.10380       -1.44676       -1.52975
B         -1.42131        1.03402        0.95717
B         -0.04172        0.12184        1.22347
B         -0.28382       -1.65198        1.54414
B         -5.74735       -0.81216       -1.13438
B         -5.55350        0.69607       -1.21319
B         -5.10864        2.13382       -1.21429
B         -1.79934       -2.17711        1.66628
