45
isomer_2640.log	Energy: -113675.8865175
B         -2.56248       -1.73108       -0.52972
B         -2.51220       -3.30393        0.03717
B         -1.15500       -4.14892        0.10980
B          0.27008       -3.40262       -0.53844
B         -1.16948       -0.85082       -1.06881
B          1.71854       -0.84322       -0.79046
B          1.64355       -4.16931        0.25805
B         -3.98385       -0.84637       -0.22469
B          1.72581       -2.55103       -0.43236
B         -3.86864       -2.48574        0.27641
B          0.22160       -4.74769        0.35366
B          3.00987       -3.33952        0.27774
B          3.12971       -1.73245       -0.22204
B          4.54667       -0.89265        0.14683
B          0.36828        1.82543       -1.11729
B          1.80098        2.53289       -0.48797
B          3.17266        1.68109       -0.25948
B          4.53234        0.79935        0.23657
B          4.40531        2.44519        0.75063
B          3.09051        3.28129        0.26618
B          1.74645        4.14459        0.24611
B          0.34964        3.38496       -0.51515
B          0.33981        4.74567        0.35217
B         -2.42876        3.33407        0.03970
B         -1.04904        4.15683        0.12296
B         -2.50995        1.75934       -0.48912
B         -3.81076        2.53642        0.29209
B         -3.95700        0.90940       -0.21621
B         -1.12022        2.58960       -0.76574
B         -1.18485       -2.57773       -0.78882
B          3.29387       -0.01540       -0.60924
B         -1.13052        0.84843       -1.04278
B          4.32743       -2.49861        0.77035
B         -5.10349       -1.65304        0.84629
B         -5.19507        0.04309        0.52359
B         -5.06119        1.73743        0.86453
B         -6.08400        0.81246        1.61361
B         -6.10361       -0.70823        1.60686
B          1.78532        0.83057       -0.91021
B         -2.60989        0.01549       -0.74621
B          0.31361       -1.83087       -1.08865
B          5.37424       -1.56889        1.33847
B          5.61944       -0.03237        1.30556
B          5.47144        1.51948        1.30307
B          0.34285       -0.00260       -1.09498
