45
isomer_2641.log	Energy: -111923.9701873
B         -2.61735       -1.58603       -0.52811
B         -2.62572       -3.23062       -0.17763
B         -1.22777       -4.07820        0.05507
B          0.23876       -3.24995       -0.47493
B         -1.14851       -0.70260       -0.81264
B          1.72610       -0.75777       -0.88851
B          1.61908       -4.06083        0.20444
B         -4.06798       -0.69963       -0.44386
B          1.62977       -2.37112       -0.35723
B         -4.02596       -2.40006       -0.01749
B          0.18756       -4.71333        0.32691
B          3.05882       -3.22782        0.23913
B          3.10261       -1.59676       -0.29787
B          4.56806       -0.80690        0.21850
B          0.31618        1.81270       -0.91383
B          1.70291        2.48329       -0.27037
B          3.15172        1.66330       -0.23954
B          4.59245        0.81170        0.24746
B          4.44744        2.36708        0.51993
B          3.15679        3.27469        0.35547
B          1.74281        4.15139        0.35138
B          0.33907        3.40726       -0.35581
B          0.33153        4.84190        0.49787
B         -2.52487        3.46359       -0.05786
B         -1.10215        4.25982        0.20426
B         -2.56583        1.83308       -0.46694
B         -3.94956        2.67038        0.07323
B         -4.04255        0.98832       -0.41365
B         -1.12286        2.63841       -0.60991
B         -1.19920       -2.42882       -0.70057
B          3.21045       -0.06089       -0.66677
B         -1.12411        0.91655       -0.78367
B          4.37613       -2.36596        0.43525
B         -5.33981       -1.58449        0.49632
B         -5.31150        0.05036        0.29162
B         -5.28766        1.87690        0.55825
B         -6.46945        0.92924        1.13929
B         -6.49283       -0.62306        1.11151
B          1.75089        0.88781       -0.85907
B         -0.94251       -2.42325        1.98682
B          0.26421       -1.63648       -0.97554
B          5.89447       -1.68175        0.66729
B          6.11507        0.02691        0.76360
B          5.94335        1.75931        0.79946
B         -0.27805       -0.82766       -0.23128
