45
isomer_2642.log	Energy: -111163.9392187
B          2.60532        1.73011       -0.44305
B          2.59078        3.36956       -0.06942
B          1.18094        4.19549        0.16932
B         -0.27250        3.35578       -0.37843
B          1.14932        0.83174       -0.74614
B         -1.72544        0.85054       -0.83328
B         -1.66601        4.13894        0.30649
B          4.06708        0.86158       -0.36519
B         -1.65235        2.45734       -0.27894
B          4.00111        2.55512        0.08489
B         -0.24365        4.80823        0.44413
B         -3.09486        3.28685        0.32341
B         -3.11516        1.66311       -0.23666
B         -4.57222        0.84701        0.26239
B         -0.28193       -1.70074       -0.88885
B         -1.66234       -2.39835       -0.26071
B         -3.12187       -1.59781       -0.22442
B         -4.57555       -0.77201        0.26847
B         -4.41130       -2.32907        0.51963
B         -3.10824       -3.21737        0.34783
B         -1.68291       -4.07544        0.33732
B         -0.28619       -3.30319       -0.35343
B         -0.26331       -4.74952        0.48000
B          2.57701       -3.32642       -0.04429
B          1.16379       -4.14473        0.20063
B          2.59829       -1.68990       -0.43021
B          3.99068       -2.51666        0.10393
B          4.06361       -0.82682       -0.35885
B          1.16656       -2.51185       -0.59055
B          1.17698        2.55672       -0.60957
B         -3.20142        0.13133       -0.62760
B          1.14599       -0.78784       -0.74006
B         -4.40157        2.40523        0.50186
B          5.32344        1.74956        0.59267
B          5.31734        0.11753        0.36487
B          5.31632       -1.71275        0.60567
B          6.48327       -0.75808        1.20494
B          6.48647        0.79463        1.19911
B         -1.72882       -0.79547       -0.82710
B          0.53316       -1.94604       -0.56889
B         -0.27483        1.74936       -0.90180
B         -5.91174        1.69809        0.71788
B         -6.11036       -0.01449        0.78921
B         -5.91614       -1.74483        0.80141
B          0.34327        0.76549        0.15140
