45
isomer_2643.log	Energy: -113523.4009290
B         -2.63248        1.67978        0.60607
B         -2.64173        3.28006        0.06030
B         -1.25710        4.08608       -0.20313
B          0.21947        3.34728        0.25286
B         -1.14086        0.81647        0.88255
B          1.66377        0.84188        0.57300
B          1.56699        4.14153       -0.43535
B         -4.03951        0.79348        0.48220
B          1.65703        2.49752        0.24015
B         -4.01075        2.46223       -0.00832
B          0.13244        4.69377       -0.56585
B          3.00963        3.38040       -0.31844
B          3.15023        1.80364        0.18484
B          4.64112        1.01791        0.18562
B          0.39280       -1.62882        0.87420
B          1.81288       -2.48616        0.36940
B          3.23113       -1.59034        0.33930
B          4.62204       -0.64802        0.00048
B          4.60035       -2.28644       -0.46856
B          3.26838       -3.19852       -0.08802
B          1.97296       -4.06130       -0.18303
B          0.33551       -3.36084        0.62900
B          0.61230       -4.32814       -0.70225
B         -2.20418       -3.06434       -0.49834
B         -0.83286       -3.77946       -0.64874
B         -2.43858       -1.83199        0.64223
B         -3.68646       -2.40009       -0.45197
B         -3.93767       -0.95328        0.31538
B         -1.13549       -2.76427        1.12315
B         -1.22275        2.49592        0.54351
B          3.25926        0.13786        0.66590
B         -1.04428       -0.84201        0.80288
B          4.40435        2.64927       -0.57099
B         -5.29451        1.62789       -0.42974
B         -5.33123       -0.08475       -0.17012
B         -5.05448       -1.70157       -0.75558
B         -6.20701       -0.77549       -1.32923
B         -6.33135        0.70691       -1.15326
B          1.78768       -0.76396        0.73818
B         -0.72593       -2.08106       -0.43037
B          0.28637        1.66396        0.74776
B          5.54182        1.70071       -0.96459
B          5.85514        0.20779       -0.86292
B          5.73562       -1.36986       -0.86845
B         -2.59008       -0.03164        0.84830
