45
isomer_2646.log	Energy: -113500.6531454
B         -2.18612       -0.60325       -0.81299
B         -2.85495       -2.83711       -1.30504
B         -2.17104       -3.71229       -0.21493
B         -0.45309       -2.87296       -0.55112
B         -0.85655       -0.56432       -1.90397
B          1.78129       -1.16038       -1.27074
B          0.45770       -3.35252        0.96429
B         -3.60450        0.15329       -0.49863
B          0.87442       -1.83008        0.14774
B         -3.53558       -1.68604       -0.40878
B         -1.06290       -3.67467        0.79989
B          1.88792       -2.84964        1.15907
B          2.60399       -1.82277        0.05606
B          4.15776       -1.21157        0.54933
B          0.63009        1.34840       -0.82829
B          2.12246        2.10869       -0.78838
B          3.52071        1.23312       -0.64909
B          4.79361        0.15825       -0.24125
B          4.77150        1.93136        0.20823
B          3.57119        2.85094       -0.26329
B          2.26164        3.78149       -0.09520
B          0.76389        2.97860       -0.36832
B          0.92445        4.41844        0.26002
B         -1.95068        3.08088        0.47036
B         -0.52464        3.80758        0.30911
B         -2.43361        1.50900       -0.31184
B         -3.41093        2.70835        0.73288
B         -4.08488        1.73482       -0.38289
B         -0.80923        2.21656       -0.24688
B         -1.48378       -2.11435       -1.76223
B          3.37758       -0.53730       -0.83393
B         -0.92941        0.67013       -0.90946
B          3.39409       -2.41025        1.51446
B         -4.46648       -1.04749        0.71385
B         -4.87310        0.56587        0.50643
B         -4.85361        2.18605        1.10296
B         -5.65763        1.12691        1.86418
B         -5.35983       -0.33925        1.74783
B          1.96254        0.44931       -1.03460
B         -1.91050       -2.07426        0.18742
B          0.29153       -1.76767       -1.64119
B          4.78944       -1.89751        1.82913
B          5.46697       -0.56387        1.39321
B          5.60042        0.87620        0.94395
B         -0.53212       -0.96472       -0.13736
