45
isomer_2648.log	Energy: -110492.0824544
B         -2.63257        1.76015        0.39648
B         -2.62401        3.40398        0.04245
B         -1.21712        4.23834       -0.18403
B          0.23879        3.39799        0.35614
B         -1.17346        0.86406        0.69132
B          1.70105        0.89334        0.78358
B          1.63027        4.19484       -0.31702
B         -4.09069        0.88675        0.30579
B          1.62241        2.50633        0.24831
B         -4.03079        2.58580       -0.12396
B          0.20546        4.86002       -0.44909
B          3.06256        3.34874       -0.34166
B          3.08847        1.71852        0.19906
B          4.54963        0.91429       -0.30720
B          0.26773       -1.66418        0.80628
B          1.65197       -2.34871        0.17223
B          3.10832       -1.54196        0.14797
B          4.55948       -0.70453       -0.33257
B          4.40193       -2.25912       -0.60255
B          3.10216       -3.15463       -0.44356
B          1.68029       -4.01846       -0.44572
B          0.27933       -3.26010        0.25181
B          0.26365       -4.69648       -0.59884
B         -2.58324       -3.29112       -0.06246
B         -1.16633       -4.10078       -0.31470
B         -2.61175       -1.65941        0.34290
B         -3.99991       -2.48531       -0.20342
B         -4.08041       -0.80142        0.27933
B         -1.17698       -2.47747        0.49587
B         -1.20784        2.59043        0.57528
B          3.18025        0.18255        0.57185
B         -1.16360       -0.75530        0.66595
B          4.37310        2.47454       -0.52837
B         -5.34902        1.78105       -0.64356
B         -5.33673        0.14647       -0.43522
B         -5.32794       -1.68079       -0.69781
B         -6.49774       -0.72373       -1.28764
B         -6.50719        0.82877       -1.26331
B          1.71107       -0.75245        0.75779
B         -0.41950       -1.23486        2.85068
B          0.24672        1.78546        0.86034
B          5.88647        1.77609       -0.75024
B          6.09209        0.06530       -0.84163
B          5.90486       -1.66555       -0.87478
B          0.38876       -1.92745        0.24794
