45
isomer_2650.log	Energy: -113501.4188280
B         -2.68194       -1.23301       -1.08743
B         -3.75329       -3.42064        0.14136
B         -2.59092       -4.23588        0.41621
B         -0.47884       -2.98519       -0.72972
B         -1.08329       -0.37312       -1.45235
B          1.67905       -0.96202       -1.13835
B          0.48041       -3.80171        0.38829
B         -3.79292       -0.23412       -0.32139
B          1.10685       -2.40173       -0.38313
B         -3.85638       -1.90876        0.01436
B         -1.04978       -4.06080        0.38619
B          2.05754       -3.41764        0.53627
B          2.67641       -2.06710       -0.14391
B          4.16606       -1.46470        0.43100
B          0.77714        1.73144       -1.02966
B          2.32002        2.24538       -0.57003
B          3.57411        1.19829       -0.32999
B          4.77627        0.03653       -0.00278
B          4.88826        1.69787        0.62427
B          3.75056        2.75487        0.18711
B          2.55159        3.82574        0.23416
B          1.04788        3.34078       -0.47046
B          1.26980        4.63758        0.42593
B         -1.73328        3.68044        0.13124
B         -0.21460        4.27655        0.20211
B         -2.09557        2.21152       -0.55819
B         -3.19434        3.08325        0.42849
B         -3.61894        1.54011       -0.23083
B         -0.54619        2.77602       -0.60290
B         -2.27333       -2.87971       -0.47008
B          3.29606       -0.48145       -0.66332
B         -0.79909        1.13470       -1.15112
B          3.57040       -2.97112        1.01537
B         -4.64169       -0.91929        1.05604
B         -4.79644        0.72375        0.65096
B         -4.46227        2.41316        1.02785
B         -5.35004        1.54234        1.94797
B         -5.39650        0.03434        1.98886
B          1.96615        0.61821       -0.93017
B         -2.39724        0.57600       -0.91816
B          0.18148       -1.45421       -1.46820
B          4.90510       -2.40177        1.48110
B          5.51387       -0.97387        1.35774
B          5.66938        0.54908        1.23507
B         -1.41753       -1.98011       -1.65577
