45
isomer_2651.log	Energy: -113643.2465522
B          2.60355        1.30077        0.13985
B          2.53403        3.06736        0.50614
B          1.15231        3.77591        0.62764
B         -0.35277        2.80508        0.81577
B          1.23032        0.46120       -0.06873
B         -1.65009        0.64461       -0.60605
B         -1.71315        3.88862        0.35174
B          4.05539        0.95913       -0.58498
B         -1.65350        2.28875       -0.17827
B          3.94061        2.37477        0.26588
B         -0.28294        4.38011        0.50947
B         -3.09890        3.19743       -0.05360
B         -3.03348        1.57052       -0.63210
B         -4.47657        0.91300       -1.18114
B         -0.38517       -1.90052       -1.23697
B         -1.53533       -1.93955        0.17986
B         -3.16527       -1.53521       -0.26875
B         -4.69505       -0.51189       -0.22338
B         -4.37211       -2.10045        0.69504
B         -2.93621       -2.68726        0.87900
B         -1.49028       -3.41290        1.11422
B         -0.43741       -3.38950       -0.22466
B          0.00505       -3.57818        1.48436
B          2.40856       -2.43613       -0.10323
B          1.34648       -3.16750        0.89644
B          2.71925       -0.44598       -0.50355
B          3.85821       -1.89475       -0.32287
B          4.20327       -0.59935       -1.18935
B          1.00716       -2.86892       -0.83535
B          1.15826        2.14790        0.25061
B         -3.22611       -0.10991       -1.20393
B          1.12097       -1.17878       -0.62247
B         -4.46691        2.38843       -0.28257
B          5.30209        1.57948        0.47708
B          5.53120        0.16297       -0.48802
B          5.40546       -1.55887       -0.34969
B          6.64171       -0.82752        0.22437
B          6.50611        0.57787        0.70154
B         -1.74599       -0.94990       -1.26470
B          0.13191       -1.95868        0.75220
B         -0.32649        1.22860        0.34814
B         -5.52052        1.25719        0.00803
B         -6.16571       -0.05700        0.45973
B         -5.73981       -1.40904        0.70670
B         -0.39214       -0.45191        0.03054
