45
isomer_2652.log	Energy: -113399.1661205
B         -2.33769        1.88022       -0.41342
B         -3.98426        1.75305        0.18049
B         -5.01911        1.31351       -1.13721
B         -3.35109        0.42506       -0.95622
B         -0.85798        1.83626       -1.17671
B         -0.76009       -0.96692       -1.04277
B         -4.01041       -1.03223        0.05809
B         -1.05756        2.24926        0.67992
B         -2.43780       -1.00399       -0.59487
B         -2.82860        2.06917        1.16765
B         -4.89397        0.23829       -0.11957
B         -3.11264       -2.28226        0.24780
B         -1.50046       -2.31374       -0.24546
B         -0.61035       -3.71241        0.09458
B          1.63829        0.45747       -1.32427
B          2.53469       -0.81633       -0.63183
B          1.79519       -2.29858       -0.43211
B          1.04919       -3.79384       -0.23063
B          2.62342       -3.48755        0.47438
B          3.38345       -2.07004        0.10365
B          4.11935       -0.70583        0.02658
B          3.30272        0.72309       -0.83925
B          4.85812        0.66409       -0.05078
B          3.68610        2.04220        0.32268
B          4.91622        1.93412       -0.82173
B          2.12258        2.18770       -0.43676
B          2.39825        2.37443        1.15846
B          0.68005        2.25072        0.51440
B          3.67705        2.20776       -1.67833
B         -3.78332        1.99253       -1.70036
B          0.14258       -2.41158       -0.68538
B          0.72164        1.89129       -1.35803
B         -2.20827       -3.61446        0.68387
B         -1.78173        2.23991        2.28471
B         -0.11507        2.00943        1.99142
B          1.47480        2.31283        2.38373
B          0.59584        2.24407        3.55658
B         -0.85842        2.33898        3.47883
B          0.86126       -0.86001       -0.99177
B         -2.29471        1.71823       -2.08680
B         -1.69183        0.29016       -1.50329
B         -1.28896       -4.73816        1.11533
B          0.25220       -4.92128        1.01205
B          1.74117       -4.60814        0.99241
B          2.21015        1.99354       -2.07008
