45
isomer_2654.log	Energy: -112813.7760039
B         -2.59138       -1.66030       -0.44824
B         -2.56581       -3.30698       -0.05634
B         -1.16069       -4.13949        0.19448
B          0.29988       -3.32078       -0.35387
B         -1.15212       -0.75993       -0.75174
B          1.76759       -0.80518       -0.83002
B          1.68663       -4.10040        0.34837
B         -4.03245       -0.79736       -0.37281
B          1.69047       -2.42966       -0.25486
B         -3.97453       -2.48233        0.08948
B          0.26227       -4.74994        0.48177
B          3.11795       -3.25300        0.36262
B          3.15021       -1.63219       -0.21433
B          4.60300       -0.80790        0.28299
B          0.31898        1.74468       -0.90450
B          1.70366        2.44137       -0.27657
B          3.15912        1.63797       -0.22920
B          4.60618        0.81179        0.27494
B          4.45006        2.37379        0.51845
B          3.14088        3.25923        0.33135
B          1.72011        4.11779        0.31081
B          0.32594        3.34824       -0.37773
B          0.30528        4.78694        0.44346
B         -2.52960        3.37930       -0.07254
B         -1.12348        4.19095        0.16707
B         -2.56207        1.73579       -0.45242
B         -3.94429        2.57106        0.07726
B         -4.02229        0.88818       -0.37598
B         -1.13181        2.55865       -0.61334
B         -1.16004       -2.51252       -0.59759
B          3.24111       -0.09196       -0.61860
B         -1.11698        0.84083       -0.75594
B          4.43862       -2.37174        0.54175
B         -5.28908       -1.67241        0.59039
B         -5.27497       -0.04079        0.35098
B         -5.26514        1.78010        0.57975
B         -6.42677        0.83723        1.18301
B         -6.44165       -0.70716        1.19049
B          1.77102        0.83857       -0.83294
B         -2.29649       -0.17896        0.58114
B          0.32268       -1.72806       -0.89526
B          5.92472       -1.64451        0.75279
B          6.12105        0.05351        0.80725
B          5.93104        1.76301        0.80342
B          0.00320       -0.76544       -0.97919
