45
isomer_2658.log	Energy: -112169.6653307
B         -2.58228       -1.65296       -0.55825
B         -2.58606       -3.29522       -0.19693
B         -1.18602       -4.13579        0.04830
B          0.27993       -3.30536       -0.47990
B         -1.11546       -0.76571       -0.84135
B          1.75968       -0.81020       -0.90262
B          1.65997       -4.10636        0.21164
B         -4.03673       -0.77167       -0.48704
B          1.66693       -2.42036       -0.36114
B         -3.99026       -2.46907       -0.04922
B          0.23039       -4.76360        0.33134
B          3.09629       -3.26754        0.24794
B          3.13645       -1.63990       -0.29962
B          4.59626       -0.84095        0.21875
B          0.33999        1.75454       -0.95194
B          1.72090        2.43476       -0.30608
B          3.17270        1.62063       -0.26265
B          4.61426        0.77789        0.23711
B          4.46190        2.33446        0.49855
B          3.16858        3.23593        0.32170
B          1.75127        4.10707        0.30480
B          0.35394        3.35283       -0.40439
B          0.33662        4.79304        0.43972
B         -2.51163        3.39998       -0.12099
B         -1.09332        4.20345        0.14288
B         -2.54427        1.76666       -0.51946
B         -3.93389        2.60212        0.00830
B         -4.01796        0.91653       -0.46790
B         -1.10372        2.57663       -0.66062
B         -1.16006       -2.49134       -0.71810
B          3.24020       -0.10609       -0.67816
B         -1.09746        0.85368       -0.82298
B          4.40928       -2.39928        0.44486
B         -5.30979       -1.65525        0.45267
B         -5.28677       -0.02169        0.23729
B         -5.27131        1.80665        0.49193
B         -6.45231        0.85826        1.07337
B         -6.46957       -0.69427        1.05577
B          1.77797        0.83562       -0.88395
B         -1.48900       -1.15996        2.66819
B          0.30164       -1.69515       -0.99106
B          5.92379       -1.70765        0.67988
B          6.13731        0.00246        0.76597
B          5.95873        1.73437        0.78950
B         -0.85712        0.20781        0.29391
