45
isomer_0266.log	Energy: -113094.5497951
B          2.61958        1.67026       -0.50961
B          2.56572        3.35262       -0.02388
B          1.18698        4.15155        0.15682
B         -0.23671        3.37979       -0.40328
B          1.20902        0.90647       -0.95088
B         -1.68924        0.83073       -0.85508
B         -1.63191        4.10900        0.31223
B          3.99826        0.80412       -0.32527
B         -1.61982        2.46850       -0.30209
B          3.91350        2.44446        0.14035
B         -0.21962        4.72063        0.43846
B         -2.96816        3.26755        0.33082
B         -3.04626        1.69891       -0.18911
B         -4.46462        0.85529        0.31539
B         -0.44459       -1.83176       -0.97313
B         -1.78403       -2.50306       -0.26493
B         -3.12794       -1.67727       -0.19608
B         -4.47883       -0.79842        0.29021
B         -4.47262       -2.46064        0.65266
B         -3.10033       -3.28172        0.39600
B         -1.73535       -4.12325        0.39498
B         -0.33684       -3.38457       -0.37645
B         -0.32005       -4.69034        0.48461
B          2.46525       -3.31088       -0.03923
B          1.08571       -4.08425        0.17058
B          2.65056       -1.69947       -0.44378
B          3.93590       -2.50767        0.21241
B          4.01536       -0.91327       -0.30712
B          1.21483       -2.55195       -0.65911
B          1.26278        2.58911       -0.64315
B         -3.17659        0.05797       -0.56886
B          1.48955       -0.63241       -0.76315
B         -4.38716        2.51942        0.61137
B          5.14584        1.66442        0.72723
B          5.17334       -0.00829        0.49992
B          5.16667       -1.73655        0.75880
B          6.24305       -0.78287        1.41569
B          6.24838        0.71664        1.42339
B         -1.76440       -0.86311       -0.85414
B          0.16014        0.53375        0.04605
B         -0.26425        1.75570       -0.98336
B         -5.65363        1.66863        0.85817
B         -5.83259        0.07758        0.89428
B         -5.67710       -1.51957        0.91540
B          0.68225       -0.88175       -1.81414
