45
isomer_2662.log	Energy: -111798.7385944
B          2.57995        1.72184       -0.48787
B          2.56751        3.35769       -0.09871
B          1.15905        4.18118        0.15601
B         -0.29751        3.34654       -0.39118
B          1.12225        0.82622       -0.79096
B         -1.75296        0.84555       -0.86121
B         -1.68706        4.12306        0.30919
B          4.04218        0.85275       -0.42671
B         -1.67673        2.44705       -0.29216
B          3.97875        2.54197        0.03971
B         -0.26396        4.79116        0.44487
B         -3.11575        3.27070        0.32637
B         -3.13923        1.65231       -0.24888
B         -4.59333        0.83140        0.25091
B         -0.30969       -1.70494       -0.94925
B         -1.68639       -2.40859       -0.31972
B         -3.14572       -1.60857       -0.26738
B         -4.59655       -0.78761        0.24172
B         -4.43077       -2.34695        0.47721
B         -3.12869       -3.23347        0.28946
B         -1.70341       -4.09126        0.26257
B         -0.31077       -3.31237       -0.42897
B         -0.28297       -4.76651        0.39063
B          2.55419       -3.33824       -0.13671
B          1.14245       -4.15896        0.10868
B          2.57315       -1.69814       -0.50728
B          3.96865       -2.52977        0.01092
B          4.03882       -0.83563       -0.43629
B          1.14054       -2.51868       -0.66705
B          1.15063        2.54983       -0.63828
B         -3.22769        0.12429       -0.65375
B          1.11903       -0.79335       -0.80015
B         -4.42135        2.38730        0.50408
B          5.30405        1.73177        0.53217
B          5.29669        0.10197        0.28901
B          5.29716       -1.73050        0.51252
B          6.46753       -0.78142        1.11398
B          6.47062        0.77128        1.12279
B         -1.75624       -0.80044       -0.87055
B          1.38360       -0.55220        2.08080
B         -0.30282        1.74512       -0.92967
B         -5.93021        1.67801        0.72219
B         -6.12834       -0.03519        0.77851
B         -5.93398       -1.76555        0.77324
B          0.46529       -0.08065       -0.53485
