45
isomer_2664.log	Energy: -113701.6339708
B         -2.13033       -1.93689       -0.64125
B         -1.45222       -2.77611        0.95213
B         -0.13708       -3.71912        0.81675
B          1.05856       -3.30923       -0.36453
B         -0.77298       -1.42737       -1.56657
B          1.92856       -0.66164       -1.07234
B          2.58763       -3.59735        0.38779
B         -3.51147       -1.07497       -0.35720
B          2.37178       -2.28519       -0.78382
B         -2.39990       -1.54014        1.11905
B          1.31662       -4.20880        0.93419
B          3.83869       -2.62837        0.06878
B          3.48688       -1.12831       -0.36022
B          4.53650        0.12887        0.15127
B         -0.25167        1.30570       -0.82869
B          0.91469        2.51475       -0.47652
B          2.51419        2.16716       -0.24722
B          4.18248        1.75172       -0.15129
B          3.52687        3.22057        0.58478
B          1.97251        3.62784        0.23135
B          0.37754        4.02442        0.24735
B         -0.71118        2.85475       -0.46845
B         -1.12051        4.15560        0.39845
B         -3.36241        2.01959        0.10138
B         -2.31337        3.19632        0.15809
B         -3.15422        0.58238       -0.86414
B         -4.41999        0.86112        0.55150
B         -4.64762        0.11522       -1.18034
B         -1.89905        1.62663       -0.52145
B         -0.61087       -2.78229       -0.52495
B          3.11690        0.56486       -0.68770
B         -1.53436       -0.11091       -0.87040
B          4.97334       -1.50348        0.46027
B         -3.81076       -0.80488        1.42181
B         -5.07912       -0.83052        0.21559
B         -5.96568        0.52346       -0.47432
B         -6.17854        0.41799        0.97816
B         -5.12599       -0.19276        1.86596
B          1.40595        0.86732       -0.69749
B         -0.84474       -1.18857        0.45290
B          0.81210       -1.90915       -1.42384
B          5.84706       -0.32766        0.91876
B          5.55459        1.20750        0.97138
B          4.83950        2.58736        1.03883
B          0.27109       -0.37741       -0.46377
