45
isomer_2666.log	Energy: -113147.5141125
B          2.44775       -1.59321        0.53036
B          2.62353       -3.32435       -0.13138
B          1.23342       -4.19618       -0.29218
B         -0.22654       -3.40428        0.38245
B          1.20446       -0.78107        1.08506
B         -1.67775       -0.82373        0.90679
B         -1.61555       -4.04979       -0.37527
B          3.84491       -0.73698        0.26004
B         -1.65502       -2.46941        0.30690
B          3.77452       -2.38228       -0.24416
B         -0.22182       -4.69155       -0.54973
B         -3.00164       -3.21293       -0.41728
B         -3.05732       -1.66959        0.17612
B         -4.41300       -0.82740       -0.33798
B         -0.35079        1.79932        1.01088
B         -1.73348        2.49178        0.37613
B         -3.12346        1.67943        0.27135
B         -4.44943        0.84846       -0.27981
B         -4.47346        2.46721       -0.59973
B         -3.09605        3.25811       -0.27889
B         -1.73906        4.14266       -0.26907
B         -0.34542        3.42885        0.46235
B         -0.36063        4.76511       -0.38906
B          2.46110        3.43930        0.02624
B          1.08035        4.22231       -0.09133
B          2.50174        1.75446        0.48215
B          3.78411        2.59417       -0.18150
B          3.86167        0.98489        0.28889
B          1.10315        2.68377        0.67419
B          1.22712       -2.76492        0.52751
B         -3.15152       -0.03102        0.56359
B          1.17258        1.00783        0.90498
B         -4.40182       -2.44680       -0.70392
B          4.98201       -1.50320       -0.80319
B          4.97665        0.11260       -0.52173
B          5.05447        1.78590       -0.73541
B          6.05235        0.90349       -1.45779
B          6.01141       -0.59912       -1.51329
B         -1.70577        0.85816        0.93172
B          1.07686       -2.06178        1.90396
B         -0.29794       -1.71184        1.09800
B         -5.64262       -1.56843       -0.99706
B         -5.79580        0.01299       -0.97074
B         -5.67108        1.54835       -0.95559
B          1.73280        0.06075       -0.07359
