45
isomer_2668.log	Energy: -111552.5537765
B         -2.60877       -1.69586       -0.37916
B         -2.59551       -3.33854        0.01143
B         -1.18381       -4.17190        0.24503
B          0.27076       -3.34920       -0.31851
B         -1.13436       -0.79727       -0.69580
B          1.75174       -0.84423       -0.80337
B          1.66205       -4.12938        0.36859
B         -4.04753       -0.80866       -0.29547
B          1.66206       -2.45480       -0.23288
B         -3.99365       -2.50223        0.16820
B          0.23630       -4.78387        0.51741
B          3.09372       -3.28834        0.37427
B          3.13274       -1.66872       -0.19914
B          4.59657       -0.85676        0.29122
B          0.35020        1.73702       -0.87169
B          1.72814        2.42572       -0.24530
B          3.17459        1.60820       -0.20827
B          4.61544        0.76822        0.28596
B          4.47345        2.33141        0.53274
B          3.17385        3.23186        0.35745
B          1.76021        4.10281        0.34744
B          0.35313        3.34712       -0.33684
B          0.34812        4.78633        0.48896
B         -2.51209        3.39028       -0.01193
B         -1.08782        4.20174        0.21999
B         -2.55998        1.74554       -0.39258
B         -3.93239        2.58066        0.15323
B         -4.02738        0.89188       -0.30147
B         -1.11558        2.57292       -0.56176
B         -1.17491       -2.54823       -0.54764
B          3.23613       -0.13030       -0.60204
B         -1.12705        0.79002       -0.69627
B          4.41747       -2.41716        0.54642
B         -5.29753       -1.67480        0.68199
B         -5.27632       -0.04099        0.44128
B         -5.25443        1.78558        0.66921
B         -6.41662        0.84574        1.28441
B         -6.43893       -0.70209        1.29157
B          1.77456        0.81415       -0.80720
B         -1.42991       -1.39148       -1.28493
B          0.28963       -1.74204       -0.86315
B          5.91832       -1.70765        0.75130
B          6.13045       -0.00657        0.80822
B          5.95732        1.71266        0.81033
B         -0.89238        1.38120       -0.99126
