45
isomer_2669.log	Energy: -113661.3390038
B         -2.57961       -1.74962       -0.58608
B         -2.51784       -3.34129        0.00940
B         -1.15270       -4.16802        0.13638
B          0.29363       -3.35739       -0.41560
B         -1.15486       -0.84208       -1.00936
B          1.79851       -0.85497       -1.07387
B          1.66816       -4.17328        0.25781
B         -3.95669       -0.85547       -0.20781
B          1.76122       -2.56472       -0.58785
B         -3.84673       -2.49697        0.29463
B          0.24480       -4.75381        0.37198
B          2.99946       -3.30348        0.29314
B          3.14486       -1.75607       -0.31120
B          4.40107       -0.83559        0.37581
B          0.35743        1.79619       -0.98315
B          1.81152        2.56300       -0.58100
B          3.17430        1.72441       -0.28664
B          4.54852        0.81773        0.17536
B          4.38874        2.45877        0.72586
B          3.06902        3.30531        0.29475
B          1.73814        4.15429        0.26732
B          0.34578        3.38534       -0.48494
B          0.31548        4.72999        0.39141
B         -2.46375        3.35496        0.01519
B         -1.09190        4.17460        0.12519
B         -2.55446        1.77481       -0.60755
B         -3.80602        2.51454        0.30674
B         -3.94538        0.89403       -0.20735
B         -1.10495        2.51835       -0.50761
B         -1.14831       -2.51015       -0.56447
B          3.25076       -0.01389       -0.53624
B         -1.12746        0.84910       -1.02882
B          4.35299       -2.50049        0.73753
B         -5.10154       -1.67022        0.83129
B         -5.21024        0.02234        0.48670
B         -5.07939        1.71671        0.82797
B         -6.10129        0.79019        1.57749
B         -6.11003       -0.73041        1.58003
B          1.80300        0.84962       -0.89549
B         -2.63431        0.00886       -0.86106
B          0.37017       -0.00041       -1.21266
B          5.45702       -1.60075        1.27858
B          5.62747       -0.03705        1.30232
B          5.43609        1.51395        1.29716
B          0.32932       -1.80099       -1.01134
