45
isomer_0267.log	Energy: -113675.8864265
B         -2.56280       -1.73040       -0.52941
B         -2.51342       -3.30373        0.03710
B         -1.15630       -4.14908        0.10957
B          0.26914       -3.40294       -0.53836
B         -1.16979       -0.85053       -1.06800
B          1.71780       -0.84334       -0.78823
B          1.64215       -4.16950        0.25871
B         -3.98419       -0.84562       -0.22470
B          1.72470       -2.55130       -0.43131
B         -3.86962       -2.48518        0.27595
B          0.22015       -4.74792        0.35365
B          3.00859       -3.34010        0.27885
B          3.12879       -1.73281       -0.22070
B          4.54725       -0.89399        0.14484
B          0.36910        1.82535       -1.11697
B          1.80184        2.53263       -0.48828
B          3.17350        1.68052       -0.26059
B          4.53233        0.79802        0.23731
B          4.40694        2.44440        0.74929
B          3.09193        3.28062        0.26600
B          1.74801        4.14419        0.24645
B          0.35076        3.38478       -0.51388
B          0.34143        4.74551        0.35290
B         -2.42782        3.33460        0.04004
B         -1.04782        4.15682        0.12381
B         -2.50936        1.75969       -0.48851
B         -3.81012        2.53715        0.29237
B         -3.95658        0.91031       -0.21606
B         -1.11940        2.58983       -0.76492
B         -1.18576       -2.57758       -0.78850
B          3.29384       -0.01588       -0.60961
B         -1.12988        0.84883       -1.04189
B          4.32671       -2.49947        0.77021
B         -5.10445       -1.65200        0.84519
B         -5.19559        0.04432        0.52252
B         -5.06130        1.73861        0.86400
B         -6.08498        0.81373        1.61217
B         -6.10512       -0.70693        1.60505
B          1.78634        0.83049       -0.91151
B         -2.60997        0.01578       -0.74633
B          0.31275       -1.83084       -1.08763
B          5.37379       -1.56958        1.33757
B          5.62026       -0.03331        1.30427
B          5.47325        1.51864        1.30147
B          0.34294       -0.00278       -1.09390
