45
isomer_2671.log	Energy: -113408.0432937
B          2.55621        1.78591       -0.73106
B          2.47134        3.48110       -0.02515
B          1.10053        4.19803        0.13830
B         -0.33827        3.38095       -0.36938
B          1.20929        0.97251       -1.18883
B         -1.78049        0.90489       -0.82203
B         -1.75259        4.15553        0.26834
B          3.89945        1.06136       -0.20854
B         -1.82224        2.59148       -0.54964
B          3.75463        2.64984        0.17303
B         -0.33243        4.74206        0.43343
B         -3.13738        3.34952        0.21399
B         -3.17285        1.72206       -0.24616
B         -4.58383        0.81553        0.06960
B         -0.30144        0.08806       -1.14825
B         -1.61767       -2.49844       -0.52990
B         -3.09327       -1.69541       -0.30668
B         -4.42716       -0.82897        0.29993
B         -4.21535       -2.45819        0.79612
B         -2.85436       -3.22505        0.35497
B         -1.50675       -4.05076        0.22298
B         -0.16422       -3.28031       -0.63666
B         -0.03216       -4.60382        0.38248
B          2.47536       -3.13300        0.20186
B          1.28057       -4.05717       -0.74257
B          2.49209       -1.41652       -0.45851
B          3.77245       -2.23688        0.32475
B          3.86913       -0.68074       -0.08918
B          1.30752       -2.41212       -1.00702
B          1.15576        2.55998       -0.53567
B         -3.27139       -0.01371       -0.63089
B          1.22987       -0.69955       -1.15436
B         -4.39979        2.48586        0.68372
B          5.07655        1.85537        0.73198
B          5.17024        0.20868        0.37935
B          5.09308       -1.42425        0.86219
B          6.12789       -0.51854        1.51758
B          6.10961        0.97922        1.47978
B         -1.75746       -0.79557       -1.03878
B          1.28376       -3.96957        0.84343
B         -0.33695        1.80326       -0.96338
B         -5.34497        1.47860        1.31123
B         -5.55920       -0.06277        1.31825
B         -5.35525       -1.60082        1.33628
B         -0.27786       -1.60763       -0.96093
