45
isomer_2672.log	Energy: -111373.2786309
B          2.61778       -1.59566        0.37456
B          2.62183       -3.22954       -0.02295
B          1.22135       -4.06859       -0.27085
B         -0.24072       -3.25429        0.29208
B          1.15190       -0.71916        0.69373
B         -1.72223       -0.77338        0.78647
B         -1.62638       -4.04387       -0.40136
B          4.06896       -0.70878        0.30641
B         -1.63134       -2.37094        0.20856
B          4.02206       -2.39625       -0.16823
B         -0.19650       -4.69414       -0.55167
B         -3.06525       -3.20865       -0.40290
B         -3.10354       -1.59361        0.18088
B         -4.57127       -0.78769       -0.30320
B         -0.30892        1.79378        0.87637
B         -1.69889        2.48403        0.26132
B         -3.14891        1.66683        0.21632
B         -4.59380        0.83110       -0.28561
B         -4.44857        2.39350       -0.51433
B         -3.15574        3.29462       -0.33223
B         -1.74066        4.16931       -0.31210
B         -0.33336        3.40371        0.36443
B         -0.32947        4.86222       -0.44782
B          2.52867        3.46546        0.04981
B          1.10532        4.27041       -0.18023
B          2.57019        1.82385        0.41172
B          3.95150        2.67479       -0.11312
B          4.04547        0.97937        0.32476
B          1.12918        2.62630        0.58699
B          1.19970       -2.44152        0.53191
B         -3.20708       -0.06883        0.59434
B          1.12937        0.90018        0.71132
B         -4.38270       -2.34010       -0.56577
B          5.33363       -1.56771       -0.66689
B          5.30869        0.06064       -0.41525
B          5.28546        1.89409       -0.62927
B          6.46231        0.96220       -1.24481
B          6.48391       -0.59028       -1.26168
B         -1.74513        0.87239        0.80435
B          0.61802       -3.06638        0.49645
B         -0.26093       -1.65581        0.83888
B         -5.90163       -1.64788       -0.76834
B         -6.12068        0.06308       -0.81423
B         -5.94700        1.79560       -0.80153
B          0.62536       -0.46441        1.56272
