45
isomer_2673.log	Energy: -113214.7182431
B          2.51150        1.69437       -0.54810
B          2.35821        3.29226        0.02978
B          0.96989        4.06568        0.20010
B         -0.44093        3.37660       -0.46088
B          1.13200        0.84271       -0.97297
B         -1.84353        0.84354       -0.97136
B         -1.84022        4.10457        0.34185
B          4.02791        0.98770       -0.34529
B         -1.87976        2.52126       -0.42721
B          3.77344        2.52603        0.19582
B         -0.43710        4.66600        0.49762
B         -3.20576        3.22064        0.30759
B         -3.25309        1.67443       -0.28173
B         -4.60817        0.74831        0.14128
B         -0.26588       -1.79701       -0.97337
B         -1.67536       -2.51144       -0.33002
B         -3.12619       -1.75246       -0.22969
B         -4.52285       -0.89833        0.16654
B         -4.39766       -2.52770        0.70126
B         -2.95857       -3.27676        0.34652
B         -1.52719       -4.16368        0.34279
B         -0.28179       -3.41552       -0.49212
B         -0.07365       -4.70171        0.43149
B          2.58299       -3.03801        0.05927
B          1.31913       -4.06869        0.11833
B          2.98469       -1.49685       -0.42076
B          4.26060       -2.28503        0.13659
B          4.28865       -0.66632       -0.43864
B          1.17497       -2.64780       -0.79985
B          1.08211        2.55334       -0.67813
B         -3.34706       -0.01920       -0.63611
B          1.04722       -0.71345       -0.86463
B         -4.59056        2.41783        0.63333
B          5.11668        1.87715        0.73153
B          5.37436        0.24351        0.37907
B          5.50369       -1.47571        0.61016
B          6.44849       -0.44632        1.36979
B          6.27657        1.03922        1.42117
B         -1.74569       -0.82660       -0.89992
B          1.68530       -1.56958        0.31697
B         -0.45547        1.83997       -1.11252
B         -5.68134        1.45549        1.07845
B         -5.81683       -0.10645        1.10169
B         -5.55141       -1.64791        1.14207
B         -0.39232        0.06190       -0.91778
