45
isomer_2676.log	Energy: -113381.4244907
B         -2.60958        1.64876        0.58993
B         -2.56729        3.32335       -0.08199
B         -1.20722        4.11979       -0.19679
B          0.21221        3.36064        0.38061
B         -1.26804        0.84145        1.04533
B          1.66506        0.81064        0.55204
B          1.64116        4.15768       -0.31185
B         -3.96708        0.90013        0.22155
B          1.59490        2.49538        0.25158
B         -3.87313        2.49015       -0.21308
B          0.21166        4.70730       -0.47078
B          3.01277        3.33109       -0.17362
B          3.08895        1.72194        0.29447
B          4.54704        0.83810        0.08607
B          0.29195       -1.79068        1.20019
B          1.60937       -2.50308        0.26710
B          2.93745       -1.67122        0.04837
B          4.36091       -0.78917       -0.26036
B          4.26275       -2.43904       -0.83749
B          2.93864       -3.30202       -0.46112
B          1.59914       -4.13789       -0.38463
B          0.19702       -3.32820        0.47755
B          0.16150       -4.65032       -0.44502
B         -2.59385       -3.23409        0.04479
B         -1.20840       -4.04310       -0.12212
B         -2.61376       -1.59950        0.62336
B         -3.92912       -2.39361       -0.13007
B         -4.00427       -0.82620        0.25249
B         -1.27729       -2.51130        0.74972
B         -1.24589        2.51071        0.56652
B          3.19400       -0.00729        0.66943
B         -1.24099       -0.79972        1.07681
B          4.43060        2.51661       -0.39079
B         -5.20259        1.68044       -0.73131
B         -5.23290        0.05356       -0.35965
B         -5.24862       -1.60573       -0.67253
B         -6.27121       -0.70987       -1.38799
B         -6.24627        0.78825       -1.42595
B          1.79532       -0.88121        1.27247
B          0.24411       -0.06028        1.02260
B          0.24669        1.75480        0.89712
B          5.49675        1.58853       -0.94645
B          5.62329        0.04752       -1.08426
B          5.37977       -1.50363       -1.24203
B          1.06446       -0.89965       -0.26023
