45
isomer_0268.log	Energy: -113431.1738298
B         -2.55188        1.72732        0.59929
B         -2.48272        3.36475        0.02178
B         -1.09873        4.16385       -0.10044
B          0.30529        3.40526        0.51970
B         -1.22246        0.86501        1.04212
B          1.71332        0.85853        0.80163
B          1.69619        4.16668       -0.24516
B         -3.92823        0.96537        0.25199
B          1.75248        2.55768        0.47174
B         -3.82140        2.56378       -0.10802
B          0.29509        4.76543       -0.33770
B          3.06244        3.31811       -0.24233
B          3.13040        1.71810        0.26580
B          4.52428        0.85253       -0.17232
B          0.20133       -1.69250        0.75393
B          1.63542       -2.51651        0.40111
B          3.11085       -1.66747        0.32809
B          4.52494       -0.82783       -0.03665
B          4.26680       -2.41396       -0.70500
B          2.95236       -3.29065       -0.20478
B          1.58625       -4.09420       -0.16726
B          0.14947       -3.40869        0.86228
B          0.13910       -4.53220       -0.36239
B         -2.37439       -3.09243       -0.31831
B         -1.26719       -4.14921        0.07028
B         -2.60605       -1.70096        0.67987
B         -3.72845       -2.28352       -0.45340
B         -3.88752       -0.79341        0.16205
B         -1.32394       -2.60798        1.19614
B         -1.17009        2.59214        0.71462
B          3.26672        0.04340        0.64493
B         -1.30597       -0.75713        0.95149
B          4.35369        2.49630       -0.75348
B         -5.16067        1.77330       -0.63700
B         -5.16582        0.11189       -0.35449
B         -5.04248       -1.47254       -0.94137
B         -6.08348       -0.54128       -1.58014
B         -6.15681        0.92856       -1.41665
B          1.63329       -0.79336        0.68078
B         -0.71101       -2.57889       -0.49276
B          0.31151        1.82812        1.06802
B          5.40789        1.56431       -1.30137
B          5.56076        0.03029       -1.28696
B          5.29666       -1.49307       -1.28951
B          0.21273        0.04703        1.01987
