45
isomer_2681.log	Energy: -113375.5163648
B         -2.52147       -1.63182       -0.26989
B         -2.53757       -3.30064        0.05611
B         -1.15837       -4.16153        0.05053
B          0.28744       -3.27363       -0.19140
B         -1.01873       -0.76728       -0.95795
B          1.66741       -0.81471       -0.81283
B          1.71852       -4.13294        0.18734
B         -3.92564       -0.81660       -0.09798
B          1.65100       -2.32658        0.03265
B         -3.96951       -2.48737        0.15537
B          0.27655       -4.80627        0.11020
B          3.05775       -3.26762        0.31984
B          3.15141       -1.69190       -0.18264
B          4.59688       -0.83619        0.00855
B          0.38060        1.73495       -0.93449
B          1.78745        2.50868       -0.42464
B          3.21533        1.71087       -0.30170
B          4.60830        0.82465       -0.03857
B          4.50687        2.47146        0.55700
B          3.14654        3.28839        0.19498
B          1.78662        4.13197        0.27855
B          0.36953        3.41082       -0.42081
B          0.37615        4.73783        0.45135
B         -2.45926        3.38124        0.08427
B         -1.04446        4.17470        0.18699
B         -2.48859        1.78493       -0.39656
B         -3.84788        2.57983        0.32752
B         -3.88806        0.92286        0.01687
B         -1.10604        2.60921       -0.60205
B         -1.14668       -2.41472       -0.34180
B          3.24180        0.00207       -0.64145
B         -1.10379        0.90910       -0.97330
B          4.43061       -2.45900        0.64376
B         -5.33328       -1.66183        0.39509
B         -5.24621        0.07145        0.45001
B         -5.20575        1.77548        0.69110
B         -6.48009        0.82415        1.05175
B         -6.54272       -0.70333        0.88114
B          1.71320        0.83873       -0.82949
B         -2.50411        0.03698       -0.59593
B          0.32633       -1.55350       -1.38130
B          5.59815       -1.54642        1.00794
B          5.80154       -0.00750        0.96587
B          5.61254        1.52512        0.98249
B          0.21969       -1.59411        0.30751
