45
isomer_2682.log	Energy: -112293.6985857
B         -2.55329        1.82793        0.40792
B         -2.49558        3.46720        0.04976
B         -1.07039        4.26267       -0.15554
B          0.34931        3.41155        0.39264
B         -1.14154        0.91796        0.71380
B          1.77265        0.87126        0.82988
B          1.75182        4.17028       -0.26197
B         -4.00741        1.00075        0.30724
B          1.72418        2.49631        0.29682
B         -3.88893        2.67884       -0.12263
B          0.34800        4.83446       -0.40015
B          3.16942        3.30010       -0.28299
B          3.17412        1.67886        0.24743
B          4.62893        0.83766       -0.25191
B          0.28532       -1.60140        0.89053
B          1.69060       -2.36532        0.17771
B          3.13618       -1.59623        0.17785
B          4.59580       -0.78283       -0.28633
B          4.42551       -2.34396       -0.58351
B          3.07434       -3.20631       -0.42930
B          1.61231       -4.05792       -0.44935
B          0.22385       -3.27761        0.24931
B          0.16070       -4.67014       -0.58756
B         -2.67316       -3.21436       -0.06035
B         -1.27923       -4.07109       -0.32320
B         -2.65964       -1.55237        0.35507
B         -4.02954       -2.34292       -0.19577
B         -4.05463       -0.68292        0.27735
B         -1.26939       -2.43426        0.49523
B         -1.12710        2.62880        0.59639
B          3.23814        0.12426        0.61516
B         -1.19944       -0.63520        0.68532
B          4.50115        2.42060       -0.48033
B         -5.21106        1.92112       -0.64829
B         -5.24847        0.28959       -0.43818
B         -5.29965       -1.48903       -0.69483
B         -6.39626       -0.51982       -1.28977
B         -6.37443        1.01510       -1.27563
B          1.76157       -0.75789        0.80644
B         -1.89594       -2.46265        1.91799
B          0.31195        1.79545        0.89713
B          5.94138        1.63585       -0.68401
B          6.09610       -0.02305       -0.77629
B          5.87973       -1.69936       -0.81985
B          0.02201       -1.79996        0.11076
