45
isomer_2685.log	Energy: -113489.6617134
B          2.17863        2.17521       -0.49336
B          1.74500        3.69263        0.18611
B          0.27603        4.33660        0.11191
B         -0.95782        3.36239       -0.64099
B          0.99168        1.16982       -1.21576
B         -1.87079        0.55857       -0.94320
B         -2.44626        3.85648        0.10279
B          3.67523        1.60849       -0.04827
B         -2.20079        2.25492       -0.71805
B          3.06032        2.95916        0.74076
B         -1.20302        4.70163        0.24041
B         -3.62112        2.74313        0.10631
B         -3.40428        1.17870       -0.32488
B         -4.62496       -0.00267        0.02725
B          0.07177       -1.68625       -1.36128
B         -1.06464       -2.58678       -0.43815
B         -2.59408       -2.14156       -0.12431
B         -4.04839       -1.49935        0.48821
B         -3.53777       -3.03960        1.04696
B         -2.02477       -3.50211        0.56454
B         -0.44809       -3.99295        0.51141
B          0.57048       -2.96759       -0.36568
B          1.03656       -4.24097        0.47017
B          3.43943       -2.30685        0.34237
B          2.25072       -3.37123       -0.06982
B          2.88472       -0.93932       -1.21326
B          4.38707       -1.51347       -0.79630
B          3.98499        0.06097       -0.47326
B          1.67626       -2.12484       -1.34898
B          0.69145        2.83504       -0.70729
B         -3.18263       -0.55737       -0.62157
B          1.33510       -0.36076       -1.35580
B         -4.72720        1.68084        0.60178
B          4.02712        2.14236        1.63393
B          4.20810        0.52975        1.12731
B          4.47870       -1.15887        0.91825
B          5.04494       -0.35601        2.17716
B          4.85612        1.08776        2.48521
B         -1.53193       -1.03019       -1.09904
B          3.27498       -2.62377       -1.28725
B         -0.66410        1.83716       -1.20088
B         -5.50992        0.55111        1.24979
B         -5.38807       -0.97626        1.40790
B         -4.82688       -2.42492        1.53742
B         -0.26788        0.08095       -1.23057
