45
isomer_2687.log	Energy: -113478.2116861
B         -2.57442       -1.70771       -0.62320
B         -2.48282       -3.11710        0.43245
B         -1.11914       -3.87042        0.49888
B          0.13862       -3.33087       -0.58103
B         -1.28403       -0.72773       -0.72910
B          1.67045       -0.75419       -0.72427
B          1.65320       -4.12858        0.13452
B         -3.94166       -0.81519       -0.25988
B          1.65198       -2.47966       -0.35823
B         -3.84414       -2.30182        0.38956
B          0.30274       -4.53363        0.55927
B          3.02687       -3.30319        0.06770
B          3.11446       -1.70092       -0.39085
B          4.57914       -0.84437       -0.16048
B          0.34664        1.86693       -1.04493
B          1.75933        2.55571       -0.44397
B          3.15110        1.75059       -0.22789
B          4.49833        0.79326        0.21200
B          4.42344        2.45511        0.72362
B          3.07064        3.29188        0.35208
B          1.70135        4.14718        0.41352
B          0.31929        3.38755       -0.35439
B          0.29721        4.69679        0.57184
B         -2.48881        3.31443        0.06358
B         -1.11382        4.09615        0.28096
B         -2.52445        1.65335       -0.56392
B         -3.83171        2.50521        0.11333
B         -3.94048        0.92660       -0.28392
B         -1.16603        2.60553       -0.63618
B         -1.32584       -2.74621       -1.06270
B          3.25887        0.05284       -0.67546
B         -1.15866        0.90504       -1.02082
B          4.38947       -2.46117        0.45164
B         -5.22772       -1.52030        0.64714
B         -5.28837        0.07689        0.09698
B         -5.22330        1.72629        0.50842
B         -6.32372        0.87453        1.13222
B         -6.32960       -0.60071        1.20634
B          1.77523        0.89568       -0.94160
B         -1.11077       -2.04283        0.53919
B          0.18261       -1.60393       -0.45802
B          5.45090       -1.54350        1.00537
B          5.72935       -0.02258        1.05870
B          5.56085        1.52204        1.13886
B          0.24743        0.05704       -1.05733
