45
isomer_2689.log	Energy: -111499.2520039
B         -2.59361       -1.60734       -0.52273
B         -2.60375       -3.24809       -0.15474
B         -1.20691       -4.09343        0.09237
B          0.26185       -3.27120       -0.44082
B         -1.12347       -0.72731       -0.81105
B          1.75140       -0.78390       -0.87530
B          1.63935       -4.07507        0.25246
B         -4.04433       -0.71978       -0.45352
B          1.65262       -2.39146       -0.32718
B         -4.00437       -2.41557       -0.00885
B          0.20721       -4.72592        0.37640
B          3.07915       -3.24205        0.28377
B          3.12542       -1.61683       -0.27045
B          4.58908       -0.82181        0.24307
B          0.34224        1.78645       -0.93348
B          1.72666        2.46358       -0.29191
B          3.17514        1.64366       -0.24676
B          4.61377        0.79700        0.25483
B          4.46812        2.35524        0.51011
B          3.17833        3.26131        0.33102
B          1.76460        4.13822        0.31213
B          0.36339        3.38688       -0.39245
B          0.35294        4.83056        0.44583
B         -2.50165        3.44700       -0.10610
B         -1.07974        4.24567        0.15295
B         -2.54146        1.81222       -0.49789
B         -3.92704        2.65554        0.02799
B         -4.01859        0.96839       -0.44125
B         -1.09775        2.61566       -0.64392
B         -1.17503       -2.45222       -0.68074
B          3.23506       -0.08501       -0.65533
B         -1.09877        0.89205       -0.79928
B          4.39593       -2.37842        0.47572
B         -5.31998       -1.59428        0.49117
B         -5.29047        0.03829        0.26914
B         -5.26718        1.86756        0.51633
B         -6.45143        0.92642        1.10292
B         -6.47511       -0.62608        1.09164
B          1.77649        0.86189       -0.86334
B         -1.81368       -1.10335        2.12027
B          0.28963       -1.66318       -0.95854
B          5.91354       -1.69210        0.70627
B          6.13420        0.01745        0.78516
B          5.96279        1.75017        0.80185
B         -0.36458       -1.42678       -0.26777
