45
isomer_2690.log	Energy: -113675.8858103
B         -2.50927        1.75913        0.48805
B         -2.42822        3.33444       -0.04009
B         -1.04836        4.15694       -0.12311
B          0.35033        3.38496        0.51476
B         -1.12982        0.84862        1.04107
B          1.78592        0.83054        0.91076
B          1.74728        4.14460       -0.24613
B         -3.95678        0.90992        0.21621
B          1.80137        2.53259        0.48775
B         -3.81025        2.53661       -0.29264
B          0.34069        4.74574       -0.35225
B          3.09117        3.28097       -0.26615
B          3.17331        1.68091        0.26070
B          4.53184        0.79850       -0.23741
B          0.31320       -1.83075        1.08786
B          1.72509       -2.55085        0.43162
B          3.12968       -1.73366        0.22207
B          4.54663       -0.89313       -0.14560
B          4.32708       -2.49905       -0.76995
B          3.00945       -3.34032       -0.27769
B          1.64294       -4.16952       -0.25849
B          0.26971       -3.40256        0.53787
B          0.22095       -4.74778       -0.35380
B         -2.51273       -3.30366       -0.03772
B         -1.15565       -4.14879       -0.10978
B         -2.56254       -1.73039        0.52960
B         -3.86916       -2.48542       -0.27599
B         -3.98401       -0.84598        0.22512
B         -1.18544       -2.57758        0.78867
B         -1.11982        2.58996        0.76531
B          3.29408       -0.01586        0.60994
B         -1.16954       -0.85071        1.06786
B          4.40606        2.44487       -0.74976
B         -5.06111        1.73781       -0.86427
B         -5.19541        0.04355       -0.52266
B         -5.10427       -1.65253       -0.84501
B         -6.10479       -0.70773       -1.60528
B         -6.08482        0.81294       -1.61228
B          1.71870       -0.84321        0.79008
B         -2.60976        0.01596        0.74603
B          0.36879        1.82537        1.11708
B          5.47169        1.51902       -1.30277
B          5.61927       -0.03274       -1.30539
B          5.37355       -1.56905       -1.33808
B          0.34295       -0.00268        1.09390
