45
isomer_2691.log	Energy: -112624.2818271
B          2.60595       -1.61035        0.38290
B          2.61144       -3.24476       -0.01243
B          1.21158       -4.08622       -0.25563
B         -0.25026       -3.27334        0.30994
B          1.13959       -0.73561        0.70463
B         -1.73421       -0.79399        0.80479
B         -1.63650       -4.06592       -0.37889
B          4.05564       -0.72140        0.30985
B         -1.64241       -2.39218        0.22879
B          4.01004       -2.40957       -0.16240
B         -0.20604       -4.71426       -0.53199
B         -3.07662       -3.23285       -0.37788
B         -3.11584       -1.61708        0.20383
B         -4.58600       -0.81400       -0.27758
B         -0.32451        1.77540        0.88763
B         -1.71708        2.46275        0.27521
B         -3.16598        1.64333        0.23501
B         -4.61090        0.80477       -0.26210
B         -4.46859        2.36707       -0.49328
B         -3.17664        3.27037       -0.31569
B         -1.76282        4.14719       -0.30036
B         -0.35266        3.38460        0.37361
B         -0.35302        4.84202       -0.44061
B          2.50846        3.45019        0.05159
B          1.08332        4.25271       -0.17589
B          2.55336        1.80913        0.41560
B          3.93205        2.66143       -0.11391
B          4.02967        0.96674        0.32600
B          1.11160        2.60967        0.59347
B          1.18955       -2.45811        0.54500
B         -3.22060       -0.09191        0.61551
B          1.11469        0.88372        0.72012
B         -4.39578       -2.36648       -0.53855
B          5.31909       -1.57975       -0.66553
B          5.29237        0.04889       -0.41601
B          5.26585        1.88202       -0.63242
B          6.44252        0.95106       -1.24972
B          6.46639       -0.60141       -1.26456
B         -1.75952        0.85177        0.82052
B          1.38231       -1.32961        2.09185
B         -0.27146       -1.67416        0.85465
B         -5.91625       -1.67680       -0.73817
B         -6.13797        0.03377       -0.78579
B         -5.96685        1.76656       -0.77586
B          0.52303       -1.37539       -0.58525
