45
isomer_2693.log	Energy: -113484.8329565
B         -2.90705       -1.79615       -0.68910
B         -2.67397       -3.29498       -0.09901
B         -1.30679       -4.06526        0.14124
B          0.13589       -3.33591       -0.39050
B         -2.25862       -0.16581       -0.68599
B          1.70980       -0.85706       -0.79566
B          1.53027       -4.12526        0.32034
B         -3.94597       -0.77092       -0.18870
B          1.69768       -2.58888       -0.48574
B         -4.06018       -2.46728        0.22848
B          0.08377       -4.65427        0.48731
B          2.97130       -3.38125        0.25237
B          3.07004       -1.75693       -0.20348
B          4.49351       -0.93808        0.18043
B          0.41752        1.86400       -1.11063
B          1.89411        2.57793       -0.54369
B          3.29265        1.66990       -0.31850
B          4.66250        0.74339       -0.01906
B          4.51758        2.34416        0.63998
B          3.17955        3.25978        0.25883
B          1.81820        4.07709        0.31556
B          0.38566        3.40718       -0.44754
B          0.37968        4.66859        0.51883
B         -2.42954        3.32095        0.11680
B         -1.02713        4.11290        0.25861
B         -2.45137        1.68306       -0.45787
B         -3.78802        2.53578        0.25672
B         -3.87002        0.90488       -0.12952
B         -1.13993        2.64691       -0.68062
B         -1.27368       -2.34337       -0.66255
B          3.30482       -0.08639       -0.65815
B         -1.02317        0.90723       -0.86642
B          4.34611       -2.61584        0.64060
B         -5.31448       -1.58290        0.72405
B         -5.27144        0.08733        0.27089
B         -5.12064        1.76746        0.67969
B         -6.24614        0.89288        1.29513
B         -6.34568       -0.61365        1.28867
B          1.89012        0.87496       -0.89414
B         -0.82027       -0.73623       -0.38294
B          0.31245       -1.82246       -1.10303
B          5.48122       -1.72492        1.14781
B          5.70765       -0.18948        1.14618
B          5.52568        1.35470        1.19247
B          0.46633        0.21223       -0.54815
