45
isomer_2694.log	Energy: -113393.0183638
B         -2.66515        1.48970        0.49597
B         -2.66433        3.19529       -0.30594
B         -1.31740        3.92154       -0.52270
B          0.12059        3.31152        0.25054
B         -1.30137        0.71135        0.76171
B          1.63460        0.83616        0.63692
B          1.53707        4.06114       -0.52861
B         -4.13348        0.91217        0.36277
B          1.60450        2.51779        0.26910
B         -3.98724        2.40509       -0.23859
B          0.10892        4.48804       -0.82495
B          2.95428        3.34011       -0.31488
B          3.04886        1.75847        0.22595
B          4.56179        0.95372        0.20193
B          0.35670       -2.17790        1.24453
B          1.72182       -2.49424        0.21200
B          3.08284       -1.61219        0.16201
B          4.43325       -0.65983       -0.22420
B          4.48566       -2.29898       -0.68392
B          3.07641       -3.10754       -0.52446
B          1.68805       -3.88015       -0.80273
B          0.33214       -3.48407        0.22444
B          0.26170       -4.30384       -1.13917
B         -2.46843       -3.13293       -0.36703
B         -1.15184       -3.88167       -0.69616
B         -2.45597       -1.53915        0.62013
B         -3.73330       -2.26094       -0.31504
B         -3.91532       -0.80228        0.32387
B         -1.11687       -2.50102        0.30616
B         -1.30583        2.30959        0.13742
B          3.17068        0.05300        0.64147
B         -1.03327       -0.97887        1.12544
B          4.36441        2.57475       -0.49607
B         -5.40388        1.60322       -0.49349
B         -5.37585       -0.04439       -0.04274
B         -5.18642       -1.62519       -0.55121
B         -6.37916       -0.82629       -1.09410
B         -6.46601        0.65542       -1.07323
B          1.66482       -0.85201        1.00618
B          0.44839       -1.06681        2.28817
B          0.18366        1.76600        0.87779
B          5.52462        1.67151       -0.87517
B          5.81273        0.15565       -0.86282
B          5.67221       -1.39670       -0.92793
B          0.21040        0.23574        1.53063
