45
isomer_2695.log	Energy: -113341.9734078
B         -2.68699        1.59585        0.68063
B         -2.77230        3.28865        0.10336
B         -1.46558        4.13963       -0.02671
B          0.01278        3.45157        0.51636
B         -1.32645        0.84674        1.14851
B          1.59122        1.02397        0.77690
B          1.34744        4.29093       -0.28241
B         -3.94006        0.76853        0.12955
B          1.50543        2.67770        0.40121
B         -3.98909        2.39070       -0.12004
B         -0.10905        4.79767       -0.33187
B          2.75235        3.54720       -0.33172
B          2.95526        1.94646        0.16891
B          4.39171        1.12757       -0.16062
B          0.39515       -1.54338        1.55630
B          1.72149       -2.52056        0.64413
B          2.96566       -1.49229        0.19017
B          4.29034       -0.53797       -0.41341
B          4.23734       -2.16595       -0.87845
B          3.00120       -3.06375       -0.29561
B          1.80510       -4.05619       -0.35794
B          0.45513       -3.94552        0.73540
B          0.50227       -4.73634       -0.67353
B         -2.09177       -3.20841       -0.36929
B         -0.83228       -4.10623       -0.40423
B         -2.28542       -1.71013        0.36680
B         -3.44489       -2.40817       -0.65317
B         -3.63694       -0.86899       -0.15613
B         -0.94305       -2.63732        0.72273
B         -1.39012        2.53389        0.84537
B          3.16517        0.22427        0.57679
B         -1.15389       -0.81140        1.07800
B          4.08480        2.75042       -0.81729
B         -5.27549        1.46490       -0.65753
B         -5.15048       -0.20620       -0.38258
B         -4.82320       -1.73633       -1.08722
B         -5.98467       -0.89138       -1.63751
B         -6.23679        0.55362       -1.39843
B          1.73972       -0.66188        0.98228
B          0.41770       -2.98419        1.86041
B          0.15980        1.88627        1.10046
B          5.12381        1.82079       -1.41650
B          5.41203        0.31328       -1.42724
B          5.28538       -1.24846       -1.44111
B          0.22024        0.10043        1.13628
