45
isomer_2696.log	Energy: -113355.8575737
B         -2.53167        1.82751        0.54344
B         -2.33515        3.42856       -0.16392
B         -0.95469        4.15469       -0.32002
B          0.49578        3.41185        0.36875
B         -1.09746        0.99146        0.90783
B          1.87068        0.89221        0.99469
B          1.91168        4.10265       -0.31583
B         -3.91780        1.06008        0.32599
B          1.90717        2.52877        0.59650
B         -3.72292        2.57798       -0.36273
B          0.51411        4.68306       -0.57531
B          3.25699        3.22545       -0.23285
B          3.31124        1.69944        0.37169
B          4.64893        0.68925       -0.02731
B          0.19749       -1.58243        0.83605
B          1.63934       -2.53242        0.52212
B          3.04923       -1.76279        0.26681
B          4.41623       -0.93396       -0.23893
B          4.27777       -2.56120       -0.71512
B          2.81705       -3.28312       -0.36076
B          1.41533       -4.05262       -0.33056
B          0.09278       -3.24237        0.49505
B         -0.05219       -4.51944       -0.56412
B         -2.67824       -3.12018       -0.09723
B         -1.42075       -3.92412       -0.74066
B         -2.67587       -1.40669        0.47496
B         -4.05806       -2.19949       -0.07935
B         -4.05922       -0.60373        0.36108
B         -1.27114       -2.12931        0.06430
B         -1.05258        2.62193        0.44255
B          3.27415       -0.06969        0.61765
B         -1.24066       -0.60863        0.78763
B          4.57458        2.34923       -0.56282
B         -5.11858        1.93032       -0.70266
B         -5.32125        0.30114       -0.25289
B         -5.32786       -1.39479       -0.54460
B         -6.38951       -0.41106       -1.20691
B         -6.33703        1.08061       -1.23361
B          1.70820       -0.81910        1.01390
B         -1.36778       -3.73801        0.87254
B          0.42170        1.82507        0.94290
B          5.63435        1.35326       -1.08181
B          5.74464       -0.18259       -1.10850
B          5.44859       -1.73739       -1.16559
B          0.30239        0.08058        1.17767
