45
isomer_2697.log	Energy: -112951.2064348
B          2.58925       -1.48076        0.45888
B          2.54989       -3.16472        0.08940
B          1.16767       -4.11902       -0.21540
B         -0.29260       -3.39581        0.33932
B          1.07427       -0.61906        0.92281
B         -1.66220       -0.86383        0.88902
B         -1.65186       -4.10615       -0.44782
B          3.96843       -0.69944        0.21784
B         -1.67892       -2.50403        0.28551
B          3.85210       -2.37422       -0.19759
B         -0.22029       -4.71302       -0.56269
B         -3.01561       -3.24089       -0.44794
B         -3.07737       -1.71185        0.14360
B         -4.46053       -0.84921       -0.33749
B         -0.37197        1.70795        0.92583
B         -1.78122        2.49189        0.32494
B         -3.17212        1.66512        0.23406
B         -4.50401        0.84953       -0.25914
B         -4.54091        2.50406       -0.61017
B         -3.13331        3.27325       -0.29520
B         -1.77204        4.10463       -0.29732
B         -0.35477        3.36691        0.42993
B         -0.31545        4.71539       -0.43225
B          2.48473        3.32389       -0.01532
B          1.07558        4.14389       -0.16585
B          2.51592        1.66247        0.48446
B          3.82398        2.46535       -0.29981
B          3.98595        0.91069        0.25967
B          1.13120        2.57382        0.58589
B          1.11569       -2.65421        0.61160
B         -3.17376       -0.03159        0.51748
B          1.03137        0.92968        0.57266
B         -4.44956       -2.48951       -0.71682
B          5.09203       -1.59901       -0.91158
B          5.11167        0.08031       -0.67572
B          5.12084        1.76621       -0.87185
B          6.20126        0.83331       -1.61220
B          6.15070       -0.69486       -1.62815
B         -1.72664        0.81422        0.85472
B          1.52807       -1.80804        1.70023
B         -0.31527       -1.71355        1.08148
B         -5.69115       -1.60508       -1.02689
B         -5.86614       -0.01261       -0.99220
B         -5.74046        1.57162       -0.98630
B          1.39756        0.69627        2.07638
