45
isomer_2699.log	Energy: -113420.7781917
B          2.54113       -1.69025        0.21257
B          2.43663       -3.34223       -0.29049
B          1.03447       -4.14795       -0.33182
B         -0.35935       -3.29200        0.17042
B          1.18720       -0.77739        0.64901
B         -1.67170       -0.71393        1.08885
B         -1.79790       -4.13526       -0.12820
B          3.90978       -0.93783       -0.03471
B         -1.78581       -2.45848        0.53844
B          3.87829       -2.56295       -0.34026
B         -0.41953       -4.76717       -0.38237
B         -3.14830       -3.21284       -0.00662
B         -3.14573       -1.61931        0.47378
B         -4.50100       -0.72205       -0.03207
B         -0.26991        1.78179        0.90576
B         -1.56710        2.58161        0.16093
B         -2.97819        1.72455       -0.10272
B         -4.49212        0.95149        0.03642
B         -4.28440        2.51671       -0.80020
B         -2.90733        3.33930       -0.48285
B         -1.51379        4.17040       -0.41861
B         -0.20472        3.45099        0.55699
B         -0.07209        4.67581       -0.49791
B          2.64707        3.25699        0.03535
B          1.31153        4.12862       -0.08616
B          2.61183        1.60575        0.63835
B          3.92744        2.30800       -0.11966
B          3.94227        0.73875        0.28051
B          1.26001        2.57775        0.56759
B          1.16016       -2.54867        0.35696
B         -3.13494        0.09370        0.58930
B          1.18397        0.81223        0.90500
B         -4.54076       -2.42556       -0.32563
B          5.24877       -1.77677       -0.71306
B          5.33522       -0.14659       -0.08196
B          5.37119        1.51310       -0.34875
B          6.51099        0.65980       -0.88685
B          6.37944       -0.82503       -1.14708
B         -1.50110        0.80580        0.10102
B         -0.28377        0.14555        1.55851
B         -0.29650       -1.68260        0.70434
B         -5.65744       -1.51790       -0.78741
B         -5.73468        0.04323       -0.92063
B         -5.42666        1.55922       -1.10732
B         -0.18256       -0.13835       -0.15676
