45
isomer_0027.log	Energy: -113379.0342457
B          2.48323       -1.73889        0.11634
B          2.44917       -3.36674       -0.30477
B          1.00965       -4.15282       -0.31449
B         -0.32272       -3.40141        0.50526
B          1.16201       -0.80255        0.42030
B         -1.58823       -0.75301        0.73749
B         -1.80862       -4.07917       -0.17421
B          3.86764       -0.94747       -0.02017
B         -1.78239       -2.50990        0.53206
B          3.80558       -2.54196       -0.47433
B         -0.41126       -4.66784       -0.47230
B         -3.15489       -3.24814       -0.01011
B         -3.14373       -1.60127        0.42972
B         -4.50160       -0.72306        0.00707
B         -0.24327        1.76416        0.88605
B         -1.61534        2.57060        0.22804
B         -3.02383        1.77363        0.05721
B         -4.47707        0.96834       -0.07076
B         -4.26715        2.57300       -0.82814
B         -2.90447        3.38642       -0.45840
B         -1.48886        4.17488       -0.46116
B         -0.14114        3.36020        0.28839
B         -0.03882        4.74883       -0.46280
B          2.64375        3.21617        0.16020
B          1.32160        4.11024       -0.08258
B          2.58952        1.56464        0.67418
B          3.96087        2.35180        0.05471
B          3.92738        0.73251        0.25005
B          1.26148        2.52261        0.76833
B          1.12321       -2.58122        0.37333
B         -3.18594        0.09902        0.64573
B          1.15500        0.78903        1.18326
B         -4.50778       -2.39704       -0.41335
B          5.20164       -1.71009       -0.81113
B          5.24596       -0.12596       -0.21970
B          5.31525        1.55859       -0.41290
B          6.38049        0.71118       -1.08626
B          6.33121       -0.79141       -1.26413
B         -1.60140        0.86206        0.48993
B         -0.08304       -0.20443        1.72771
B         -0.24350       -1.77806        1.07044
B         -5.55380       -1.47466       -0.95640
B         -5.64231        0.07891       -1.07051
B         -5.34536        1.59441       -1.25825
B         -0.15811        0.08587        0.02105
