45
isomer_2700.log	Energy: -113473.5803148
B         -2.63851       -1.40798       -0.54019
B         -2.82561       -3.08784       -0.41160
B         -1.66566       -3.93920        0.16218
B         -0.06417       -3.15051       -0.33975
B         -1.07308       -0.85522       -0.29704
B          1.75387       -0.93837       -1.08030
B          1.16027       -3.71521        0.80196
B         -4.03097       -0.50678       -0.48109
B          1.52992       -2.48323       -0.31877
B         -4.14839       -2.11427       -0.17355
B         -0.38998       -3.97732        1.00800
B          2.65551       -3.24401        0.61750
B          3.00071       -1.80345       -0.20115
B          4.40189       -1.00228        0.24739
B          0.44754        1.65995       -0.77184
B          1.97095        2.39771       -0.55402
B          3.39516        1.55570       -0.51118
B          4.77788        0.54327       -0.31656
B          4.68957        2.24478        0.29666
B          3.40407        3.13505        0.04562
B          2.03688        3.98139        0.22344
B          0.56490        3.30153       -0.34369
B          0.65924        4.57436        0.58776
B         -2.23906        3.39386        0.31454
B         -0.83027        4.09379        0.43296
B         -2.41676        1.74451       -0.30688
B         -3.67407        2.61355        0.44250
B         -3.90066        1.16476       -0.34862
B         -0.95695        2.49468       -0.12077
B         -1.38797       -2.30751        0.55316
B          3.35135       -0.20630       -0.82841
B         -1.04074        0.81053       -0.48791
B          4.15691       -2.56271        0.88408
B         -5.36852       -1.29988        0.34365
B         -5.30343        0.40087        0.14670
B         -5.10955        2.01703        0.66716
B         -6.37226        1.16735        1.07739
B         -6.45900       -0.31708        0.98781
B          1.88944        0.76115       -0.88643
B         -1.38936       -2.43509       -1.25580
B          0.18771       -1.75026       -1.24493
B          5.42813       -1.81830        1.16884
B          5.81030       -0.29831        0.93825
B          5.70424        1.20460        0.81739
B          0.30853       -0.03929       -0.94447
