45
isomer_2701.log	Energy: -113478.3734273
B         -2.52277        1.65621        0.56244
B         -2.48711        3.31682       -0.06087
B         -1.11227        4.09974       -0.27391
B          0.32098        3.38804        0.35781
B         -1.15816        0.90549        1.02027
B          1.77992        0.89575        0.94686
B          1.70329        4.14813       -0.40987
B         -3.93782        0.92537        0.28305
B          1.76049        2.55499        0.44588
B         -3.82952        2.50600       -0.11433
B          0.29881        4.69775       -0.56714
B          3.07136        3.29210       -0.35343
B          3.15301        1.75142        0.22769
B          4.49583        0.79066       -0.21797
B          0.18129       -1.60530        0.45490
B          1.65879       -2.47636        0.37345
B          3.11489       -1.70202        0.39267
B          4.57845       -0.84692        0.15518
B          4.38507       -2.46343       -0.45850
B          3.02129       -3.30655       -0.07384
B          1.64910       -4.12889       -0.13117
B          0.13457       -3.32248        0.58119
B          0.29789       -4.54067       -0.54619
B         -2.48286       -3.11810       -0.42952
B         -1.12301       -3.87766       -0.48876
B         -2.57450       -1.70194        0.61991
B         -3.84353       -2.30365       -0.39161
B         -3.94548       -0.81797        0.25157
B         -1.33223       -2.74461        1.06736
B         -1.16427        2.60662        0.63999
B          3.25862        0.05182        0.67219
B         -1.28023       -0.72681        0.72772
B          4.42326        2.45378       -0.72704
B         -5.22048        1.72858       -0.51048
B         -5.28884        0.08103       -0.09914
B         -5.22647       -1.51795       -0.65350
B         -6.32534       -0.59665       -1.21413
B         -6.32114        0.87826       -1.13776
B          1.67081       -0.75471        0.73037
B         -1.11063       -2.05074       -0.53630
B          0.34840        1.86597        1.04637
B          5.56091        1.52007       -1.14137
B          5.72706       -0.02521       -1.06526
B          5.44482       -1.54433       -1.01557
B          0.24774        0.05835        1.06081
