45
isomer_2703.log	Energy: -112247.0540793
B          2.58889        1.76732       -0.44109
B          2.55316        3.40406       -0.05289
B          1.13741        4.22289        0.19176
B         -0.30975        3.38370       -0.35824
B          1.15599        0.86613       -0.74857
B         -1.74956        0.86322       -0.83426
B         -1.70720        4.14668        0.33415
B          4.04138        0.90104       -0.37020
B         -1.69038        2.47387       -0.26498
B          3.96464        2.58632        0.09316
B         -0.28963        4.81286        0.47248
B         -3.12826        3.28455        0.34658
B         -3.14225        1.66652       -0.22679
B         -4.59070        0.83030        0.26428
B         -0.28681       -1.69960       -0.91146
B         -1.66972       -2.40713       -0.28838
B         -3.12660       -1.61123       -0.24433
B         -4.57813       -0.79376        0.25494
B         -4.41530       -2.35682        0.49724
B         -3.09656       -3.23722        0.31219
B         -1.67581       -4.08995        0.29471
B         -0.28139       -3.31283       -0.38861
B         -0.26053       -4.75345        0.42842
B          2.58680       -3.32178       -0.07528
B          1.17467       -4.15483        0.15542
B          2.60553       -1.66927       -0.44873
B          3.99386       -2.48424        0.07553
B          4.05126       -0.79805       -0.37467
B          1.17455       -2.52220       -0.63302
B          1.15359        2.59814       -0.59649
B         -3.21966        0.12518       -0.63146
B          1.14712       -0.78267       -0.75116
B         -4.44107        2.39579        0.52431
B          5.28516        1.78382        0.59321
B          5.28944        0.14973        0.35309
B          5.30105       -1.67016        0.57888
B          6.44895       -0.71394        1.18131
B          6.44884        0.82825        1.19072
B         -1.74257       -0.79501       -0.84241
B          1.04069       -2.11210        0.33052
B         -0.31091        1.78347       -0.89416
B         -5.91898        1.65042        0.72884
B         -6.09909       -0.04163        0.77992
B         -5.89743       -1.75162        0.77554
B          0.48529        0.55526       -0.38003
