45
isomer_2704.log	Energy: -113441.9689192
B          2.47485       -1.74119        0.39429
B          2.66250       -3.19396       -0.79587
B          1.38593       -4.10508       -0.81098
B          0.07612       -3.24197        0.39361
B          1.28539       -0.63228        1.02383
B         -1.68382       -0.78891        1.00645
B         -1.38009       -3.98014       -0.24424
B          3.68409       -0.64449       -0.00693
B         -1.55253       -2.48806        0.56581
B          3.73927       -2.13561       -0.65061
B         -0.04922       -4.50032       -0.66173
B         -2.82900       -3.27279       -0.17063
B         -3.02492       -1.74426        0.31582
B         -4.41173       -0.90747       -0.21429
B         -0.39945        1.88203        0.97217
B         -1.84808        2.55129        0.46008
B         -3.21462        1.67921        0.16531
B         -4.64475        0.72757        0.04637
B         -4.49891        2.36253       -0.68956
B         -3.19405        3.24688       -0.34940
B         -1.83455        4.13191       -0.42097
B         -0.44141        3.42786        0.34009
B         -0.45560        4.75276       -0.56043
B          2.37334        3.45217       -0.11221
B          0.97874        4.21798       -0.27893
B          2.45077        1.82416        0.46661
B          3.79733        2.69187       -0.16039
B          3.72952        1.01868       -0.01534
B          1.08846        2.68694        0.57220
B          1.81971       -3.42133        0.59170
B         -3.25536       -0.02806        0.65336
B          1.14779        0.95940        1.03417
B         -4.26534       -2.56392       -0.59844
B          5.16481       -1.31567       -0.68178
B          5.17631        0.23842       -0.08015
B          5.12781        1.93613       -0.51107
B          6.24516        1.01000       -1.06313
B          6.37013       -0.47168       -0.99990
B         -1.77549        0.86147        0.72473
B          1.17016       -2.28401        1.41988
B         -0.27743       -1.65379        1.30384
B         -5.44646       -1.75533       -1.08525
B         -5.69576       -0.21243       -1.10637
B         -5.52014        1.32849       -1.14685
B         -0.24947        0.09503        0.96509
