45
isomer_2705.log	Energy: -113449.2830252
B          2.75421        0.97173       -0.24265
B          2.67854        2.66744        0.69691
B          1.39138        3.51242        0.77068
B         -0.04423        2.89322        0.08224
B          1.24191        0.25669       -0.48805
B         -1.70918        0.68175       -0.86159
B         -1.38847        3.92998        0.44488
B          4.27604        1.10705       -0.85215
B         -1.57279        2.29099       -0.20209
B          4.03468        2.17561        0.30670
B          0.02520        4.29141        0.84551
B         -2.86489        3.29881        0.09533
B         -3.09535        1.77869       -0.54566
B         -4.67469        1.07485       -0.54660
B         -0.72865       -1.99489       -1.49222
B         -1.92976       -2.42686       -0.28700
B         -3.28560       -1.52861       -0.24492
B         -4.64883       -0.53366       -0.02574
B         -4.64305       -2.06001        0.73923
B         -3.20147       -2.87139        0.67580
B         -1.73677       -3.34585        1.10155
B         -0.26700       -3.02367        0.03885
B         -0.34754       -3.44230        1.61910
B          2.46752       -2.52300        0.94945
B          1.04693       -3.05060        1.30655
B          2.30330       -1.07616       -0.11565
B          3.75464       -1.99637        0.35623
B          3.88888       -0.49451       -0.37404
B          1.57376       -2.77341       -0.38721
B          1.32379        1.83799        0.18203
B         -3.36709        0.07735       -0.98827
B          0.88153       -1.24753       -1.14322
B         -4.34446        2.67596        0.16265
B          5.60999        1.69931       -0.00893
B          5.49682        0.06665       -0.44978
B          5.23463       -1.43480        0.27784
B          6.52377       -0.64310        0.59788
B          6.75737        0.81398        0.39944
B         -2.01251       -0.96418       -1.31007
B          0.53371       -2.89678       -1.50590
B         -0.21250        1.30484       -0.34164
B         -5.59421        1.87515        0.49887
B         -5.94042        0.40104        0.60199
B         -5.82869       -1.14887        0.85340
B         -0.36045       -0.20631       -1.18977
