45
isomer_2706.log	Energy: -113620.0905134
B         -2.47867        1.76980        0.41667
B         -2.46006        3.38972       -0.06706
B         -1.10310        4.19862       -0.16771
B          0.36942        3.42410        0.43481
B         -1.11720        0.91034        0.91682
B          1.74479        0.81850        0.94502
B          1.73995        4.14737       -0.33990
B         -3.87623        0.90268        0.13824
B          1.76544        2.51626        0.35544
B         -3.85303        2.56079       -0.25046
B          0.32862        4.73927       -0.47449
B          3.10102        3.25255       -0.33070
B          3.15239        1.69019        0.23946
B          4.49722        0.76909       -0.24329
B          0.32739       -1.81279        0.92891
B          1.68426       -2.53543        0.27641
B          3.09116       -1.74923        0.19392
B          4.46242       -0.87830       -0.25444
B          4.41082       -2.53833       -0.65813
B          2.99993       -3.32550       -0.37163
B          1.60263       -4.17669       -0.40243
B          0.26646       -3.40092        0.36997
B          0.16748       -4.72090       -0.51854
B         -2.57882       -3.33509        0.08002
B         -1.24291       -4.14427       -0.15615
B         -2.55961       -1.68734        0.58791
B         -3.95918       -2.51795       -0.08052
B         -3.92466       -0.84735        0.20617
B         -1.17482       -2.57382        0.63858
B         -1.08863        2.62947        0.62657
B          3.22984       -0.01847        0.56014
B         -1.11555       -0.84453        0.98483
B          4.50506        2.44066       -0.60727
B         -5.14820        1.75137       -0.73926
B         -5.15362        0.04858       -0.48833
B         -5.22497       -1.68686       -0.60720
B         -6.26384       -0.73102       -1.32372
B         -6.23635        0.79643       -1.37961
B          1.73211       -0.86450        0.87080
B         -2.42305        0.01964        0.33128
B          0.38079        1.80194        0.97827
B          5.66732        1.51432       -0.98247
B          5.81621       -0.06861       -0.99503
B          5.59869       -1.63939       -1.02709
B          0.34108        0.00559        1.38521
