45
isomer_2707.log	Energy: -113565.7539634
B         -2.30808        1.79495        0.31575
B         -2.26695        3.41603       -0.04042
B         -0.85129        4.20052       -0.00463
B          0.53988        3.41436        0.75408
B         -1.03065        0.92243        1.00344
B          1.94995        0.84602        1.16397
B          1.96414        4.05630       -0.03244
B         -3.69198        0.93559       -0.15295
B          2.01371        2.50962        0.81430
B         -3.61397        2.62418       -0.42225
B          0.57957        4.70209       -0.20266
B          3.25815        3.13904       -0.15360
B          3.28354        1.54465        0.38434
B          4.40493        0.46906       -0.32820
B          0.36712       -1.68068        1.77804
B          1.15554       -2.82581        0.70385
B          2.24774       -1.74368       -0.29596
B          3.72551       -0.99845       -0.86399
B          3.56505       -2.62523       -1.11656
B          2.57314       -3.49605       -0.23679
B          1.62402       -4.39589        0.38202
B         -0.67956       -2.62794        0.63452
B          0.12716       -4.28370        0.52424
B         -2.50834       -3.36954        0.12942
B         -1.33771       -4.18552        0.35634
B         -2.35972        0.06329        0.57921
B         -3.71657       -2.42083       -0.23516
B         -3.55623       -0.79010       -0.29590
B         -0.95580       -0.88636        0.92170
B         -0.93269        2.61189        0.70442
B          3.10894       -0.21366        0.51475
B          0.43675        0.01989        1.26325
B          4.40003        2.18694       -0.75122
B         -4.96148        1.79722       -0.78434
B         -4.71982        0.08879       -1.15198
B         -4.98357       -1.59307       -0.91873
B         -6.13201       -0.69480       -1.35633
B         -6.15217        0.82175       -1.16577
B          1.82404       -0.99460        1.27506
B         -2.29059       -1.73147        0.28615
B          0.46322        1.79181        1.24762
B          5.13823        1.15018       -1.58922
B          5.08253       -0.37138       -1.78536
B          4.67766       -1.85227       -1.83534
B          0.53862       -1.32557       -0.01667
