45
isomer_2708.log	Energy: -113366.2197480
B          2.99536       -1.69197        0.54919
B          3.26582       -3.20599       -0.38888
B          1.96813       -4.06510       -0.52000
B          0.44086       -3.04077        0.51423
B          1.08041       -0.32023        1.72221
B         -1.57340       -0.89591        0.81170
B         -0.89582       -4.04265       -0.25289
B          3.99106       -0.52739        0.04980
B         -1.17969       -2.48333        0.43209
B          4.32756       -2.06743       -0.45407
B          0.54328       -4.44120       -0.39679
B         -2.36268       -3.45988       -0.40056
B         -2.74959       -1.93654        0.12384
B         -4.35604       -1.37701       -0.19158
B         -0.71479        1.93145        1.18329
B         -2.20437        2.44333        0.50439
B         -3.41791        1.39839        0.21466
B         -4.54392        0.26979       -0.36888
B         -4.81088        1.92049       -0.71521
B         -3.56458        2.95199       -0.31841
B         -2.29291        3.93663       -0.39977
B         -0.81532        3.41093        0.40826
B         -0.94354        4.63111       -0.61010
B          1.91601        3.55552       -0.15753
B          0.51294        4.20388       -0.29672
B          2.15216        1.85187        0.63713
B          3.20879        2.81464       -0.31180
B          3.58769        1.24867        0.12503
B          0.74469        2.74099        0.76282
B          2.13339       -3.14615        0.79954
B         -3.21190       -0.30822        0.48652
B          0.90023        1.21973        1.42996
B         -3.80120       -2.90213       -0.82345
B          5.35676       -0.94868       -0.95258
B          5.00261        0.65572       -0.45754
B          4.63657        2.23595       -0.81451
B          5.84183        1.62097       -1.53799
B          6.13059        0.18299       -1.62023
B         -1.92272        0.78036        0.94979
B          1.58818       -1.81927        1.40450
B         -0.02217       -1.45231        1.07259
B         -5.07871       -2.18525       -1.33896
B         -5.61105       -0.73073       -1.27918
B         -5.74543        0.84785       -1.22008
B         -0.50629        0.19488        1.64620
