45
isomer_2709.log	Energy: -113473.5831298
B         -2.42021        1.74205        0.30775
B         -2.24557        3.39290       -0.31090
B         -0.83813        4.09466       -0.43067
B          0.55895        3.30345        0.34616
B         -1.04256        0.80959        0.48285
B          1.88698        0.76372        0.88411
B          2.02967        3.98373       -0.22502
B         -3.90354        1.16086        0.35109
B          1.96649        2.40037        0.55001
B         -3.67997        2.61171       -0.43684
B          0.65049        4.57512       -0.58730
B          3.39828        3.13950       -0.04859
B          3.39143        1.56008        0.50873
B          4.77570        0.55033        0.31409
B          0.18856       -1.74883        1.24231
B          1.53449       -2.48270        0.32167
B          3.00475       -1.80144        0.20564
B          4.40372       -0.99758       -0.24544
B          4.16326       -2.56040       -0.87768
B          2.66352       -3.24486       -0.60977
B          1.16995       -3.71957       -0.79462
B         -0.05822       -3.15513        0.34428
B         -0.37897       -3.98256       -1.00441
B         -2.82055       -3.09043        0.40303
B         -1.65845       -3.94174       -0.16495
B         -2.63572       -1.41167        0.53932
B         -4.14421       -2.11807        0.16656
B         -4.02896       -0.51155        0.47879
B         -1.37814       -2.31010       -0.55481
B         -0.96152        2.49431        0.12071
B          3.35085       -0.20153        0.82743
B         -1.07083       -0.85595        0.29056
B          4.68488        2.25045       -0.30037
B         -5.11474        2.01316       -0.66058
B         -5.30494        0.39497       -0.14464
B         -5.36550       -1.30493       -0.34844
B         -6.45843       -0.32291       -0.98912
B         -6.37572        1.16196       -1.07285
B          1.75411       -0.93553        1.07768
B         -1.38677       -2.43636        1.25287
B          0.44355        1.66154        0.77196
B          5.70187        1.21184       -0.81971
B          5.81041       -0.29137       -0.93858
B          5.43192       -1.81282       -1.16561
B          0.30784       -0.03825        0.94332
