45
isomer_2711.log	Energy: -110904.4378873
B          2.58296       -1.62255        0.31105
B          2.59433       -3.25301       -0.10014
B          1.19728       -4.09961       -0.34164
B         -0.26482       -3.30012        0.24204
B          1.11429       -0.75887        0.65155
B         -1.75838       -0.83368        0.77133
B         -1.65167       -4.09345       -0.44469
B          4.02735       -0.72515        0.23645
B         -1.66216       -2.42572        0.17923
B          3.98739       -2.40890       -0.25183
B         -0.21890       -4.73257       -0.61411
B         -3.09615       -3.26820       -0.42547
B         -3.13983       -1.65836        0.17215
B         -4.61762       -0.85859       -0.29112
B         -0.36181        1.74233        0.86919
B         -1.76231        2.42807        0.27326
B         -3.20709        1.60128        0.23530
B         -4.65101        0.75980       -0.25976
B         -4.51864        2.32501       -0.47677
B         -3.23029        3.23348       -0.29951
B         -1.82108        4.11772       -0.28561
B         -0.40215        3.35625        0.37100
B         -0.41602        4.82145       -0.42901
B          2.45623        3.44035        0.02953
B          1.02527        4.23735       -0.18013
B          2.51243        1.79612        0.37728
B          3.88278        2.66090       -0.15361
B          3.99253        0.96259        0.26915
B          1.06773        2.58713        0.57304
B          1.17227       -2.47945        0.47488
B         -3.24978       -0.13782        0.59932
B          1.08089        0.86008        0.68292
B         -4.42100       -2.40743       -0.56846
B          5.28841       -1.56722       -0.75606
B          5.25480        0.05877       -0.49058
B          5.21701        1.89373       -0.68901
B          6.39420        0.97513       -1.32356
B          6.42623       -0.57698       -1.35363
B         -1.79233        0.81169        0.80321
B          2.17964       -1.95213        2.30360
B         -0.29066       -1.70641        0.80237
B         -5.94649       -1.72405       -0.75069
B         -6.17763       -0.01432       -0.78016
B         -6.01566        1.71920       -0.75462
B          1.21944        0.21614        0.79233
