45
isomer_2713.log	Energy: -113438.0069185
B          2.83401       -1.32206        0.86049
B          2.98563       -3.00021        0.38220
B          1.74890       -3.91384        0.32329
B          0.10293       -3.30984        0.83860
B          1.35435       -0.65284        1.24507
B         -1.42929       -0.85952        0.48091
B         -0.92207       -4.07599       -0.42814
B          4.00931       -0.41135        0.29126
B         -0.94594       -2.34707       -0.22452
B          4.19006       -2.02920        0.12955
B          0.46266       -4.57310       -0.12936
B         -2.26506       -3.35624       -0.80517
B         -2.66124       -1.95881       -0.10372
B         -4.22530       -1.31137       -0.31943
B         -0.53473        1.70003        1.13159
B         -2.08830        2.34963        0.73068
B         -3.36533        1.37943        0.54778
B         -4.50371        0.34945       -0.21526
B         -4.72058        2.03376       -0.38672
B         -3.50135        2.98842        0.12246
B         -2.23000        3.98082        0.12454
B         -0.70562        3.31090        0.69470
B         -0.89642        4.66937       -0.16447
B          1.92982        3.41960       -0.44162
B          0.52965        4.14576       -0.25970
B          2.17085        1.78139        0.12926
B          3.32178        2.72537       -0.69099
B          3.68856        1.23762       -0.09589
B          0.76268        2.53265        0.41461
B          1.45102       -2.25802        0.71803
B         -3.13337       -0.36693        0.55274
B          0.93756        0.81116        0.62250
B         -3.68976       -2.69940       -1.22671
B          5.39647       -1.11854       -0.50342
B          5.13636        0.55852       -0.40758
B          4.77447        2.05961       -1.10607
B          5.99514        1.25237       -1.61835
B          6.27903       -0.19284       -1.33962
B         -1.92198        0.65676        1.19997
B         -0.31647       -0.05156        1.48969
B         -0.14807       -1.77416        1.48871
B         -4.94234       -1.91971       -1.61618
B         -5.49524       -0.50869       -1.32221
B         -5.66587        1.03382       -1.03800
B          0.24675       -0.96517       -0.07550
