45
isomer_2714.log	Energy: -113488.1879678
B          2.67782        1.69098       -0.68080
B          2.65401        3.33420       -0.19729
B          1.26898        4.17837       -0.01617
B         -0.16433        3.40190       -0.53079
B          1.27947        0.81299       -1.05493
B         -1.63591        0.90834       -0.73068
B         -1.53811        4.21673        0.22065
B          4.08363        0.87850       -0.35914
B         -1.65188        2.60932       -0.51134
B          3.95894        2.50530        0.12571
B         -0.10736        4.77979        0.27870
B         -2.93239        3.41836        0.24926
B         -3.05172        1.81708       -0.16787
B         -4.50620        0.97401        0.02406
B         -0.30535       -1.75872       -1.12922
B         -1.48787       -2.32467        0.04706
B         -3.05187       -1.63030       -0.13941
B         -4.36012       -0.64015        0.42324
B         -4.30299       -2.33694        0.78265
B         -2.99625       -3.16446        0.28816
B         -1.63459       -4.06763        0.00583
B         -0.34981       -3.42059       -1.13875
B         -0.27578       -4.74953       -0.03202
B          2.54268       -3.27406       -0.04682
B          1.12435       -4.11434       -0.03090
B          2.58269       -1.66566       -0.60243
B          3.81884       -2.40103        0.16046
B          3.90049       -0.75669       -0.21968
B          1.13118       -2.52796       -0.65609
B          1.29832        2.52816       -0.69324
B         -3.17155        0.11286       -0.50916
B          1.27456       -0.77514       -1.04243
B         -4.31217        2.62914        0.65065
B          5.18108        1.73104        0.74061
B          4.71760        0.10205        0.94191
B          4.96292       -1.56742        0.98232
B          5.92220       -0.70828        1.74490
B          6.10298        0.78077        1.52437
B         -1.66706       -0.74313       -0.82776
B         -0.19792        0.00917       -1.11592
B         -0.23043        1.81185       -1.02942
B         -5.36161        1.68602        1.18422
B         -5.61903        0.13612        1.23682
B         -5.44907       -1.40251        1.26847
B         -0.12136       -3.02385        0.58223
