45
isomer_2715.log	Energy: -112402.5855467
B         -2.55447        1.80294        0.40272
B         -2.51812        3.44477        0.04124
B         -1.09705        4.25591       -0.18103
B          0.34242        3.39537        0.37125
B         -1.11129        0.88548        0.70995
B          1.76276        0.87013        0.81844
B          1.75000        4.16718       -0.29761
B         -4.02559        0.95209        0.30772
B          1.71246        2.48164        0.27537
B         -3.93661        2.64797       -0.12943
B          0.33657        4.85398       -0.44082
B          3.16895        3.29863       -0.31023
B          3.16623        1.67074        0.23806
B          4.61740        0.84135       -0.25620
B          0.28936       -1.66448        0.84466
B          1.66623       -2.37357        0.22163
B          3.13518       -1.58986        0.20197
B          4.60199       -0.77751       -0.27412
B          4.42157       -2.33069       -0.53789
B          3.10703       -3.20497       -0.38222
B          1.67180       -4.04641       -0.38852
B          0.27903       -3.26295        0.29755
B          0.24559       -4.70285       -0.54660
B         -2.58187       -3.25056       -0.03286
B         -1.17645       -4.08349       -0.27334
B         -2.58703       -1.61674        0.36487
B         -3.98489       -2.42332       -0.18556
B         -4.04166       -0.73614        0.28903
B         -1.16617       -2.45646        0.52974
B         -1.11792        2.61161        0.58584
B          3.23179        0.13527        0.61838
B         -1.12671       -0.73394        0.69203
B          4.46664        2.40314       -0.48549
B         -5.26438        1.86157       -0.65285
B         -5.27891        0.22798       -0.43698
B         -5.29734       -1.60039       -0.69117
B         -6.44863       -0.62787       -1.29201
B         -6.43385        0.92468       -1.27483
B          1.74709       -0.77572        0.80022
B         -1.91634       -1.55917        2.12097
B          0.32221        1.78528        0.88284
B          5.97007        1.68004       -0.69554
B          6.14933       -0.03418       -0.77796
B          5.93514       -1.76201       -0.80427
B         -0.43158       -1.58450       -0.26695
