45
isomer_2716.log	Energy: -113236.7456176
B         -2.68186       -1.39806       -1.00020
B         -2.66564       -3.08821       -0.60184
B         -1.42508       -3.63258        0.41838
B          0.09569       -3.13854       -0.33465
B         -1.02820       -0.64434       -0.47831
B          1.71714       -0.79368       -0.95400
B          1.39029       -3.89158        0.54738
B         -3.95559       -0.51701       -0.59254
B          1.61057       -2.34809       -0.26473
B         -3.77259       -2.04349        0.34046
B         -0.04510       -4.29670        0.77126
B          2.87527       -3.22406        0.38419
B          3.09177       -1.73147       -0.26588
B          4.54783       -0.92262        0.03995
B          0.45639        1.68213       -0.70389
B          1.96980        2.44617       -0.40084
B          3.37659        1.60943       -0.42673
B          4.81450        0.67531       -0.36005
B          4.70955        2.29278        0.37853
B          3.37384        3.15376        0.16755
B          1.98512        4.03133        0.39543
B          0.56266        3.34566       -0.19215
B          0.61723        4.65352        0.69649
B         -2.25994        3.45098        0.26949
B         -0.85873        4.12721        0.47303
B         -2.40030        1.80637       -0.43398
B         -3.67935        2.75289        0.11397
B         -3.85670        1.19993       -0.45564
B         -0.94133        2.55100       -0.20917
B         -1.22460       -2.34867       -1.16388
B          3.34253       -0.07225       -0.79494
B         -0.97443        0.92906       -0.64415
B          4.38189       -2.55037        0.56018
B         -5.18288       -1.16712        0.38323
B         -5.26814        0.39091       -0.17245
B         -5.10575        2.04778        0.37395
B         -6.20232        1.20298        0.98988
B         -6.25608       -0.27051        0.99472
B          1.83970        0.77462       -0.76323
B         -2.78851       -2.86261        1.12717
B          0.27393       -1.57422       -1.05275
B          5.65869       -1.78889        0.83688
B          5.93825       -0.25317        0.77825
B          5.75244        1.26742        0.81046
B         -1.80854       -1.83299        0.41516
