45
isomer_2717.log	Energy: -113458.2569233
B          2.64381        1.53857       -0.56720
B          2.62338        3.24352        0.00834
B          1.32165        4.06062       -0.05463
B         -0.19702        3.32408       -0.78104
B          1.22196        0.75452       -0.92255
B         -1.67657        0.91949       -0.97173
B         -1.46690        4.09843        0.23383
B          3.98408        0.77987       -0.27740
B         -1.34380        2.35018        0.15201
B          3.90287        2.35412        0.18804
B         -0.07719        4.64487        0.18040
B         -2.80202        3.27369        0.45502
B         -2.97199        1.80218       -0.18545
B         -4.32307        0.87335        0.36188
B         -0.32527       -1.78488       -0.96944
B         -1.80304       -2.54569       -0.60284
B         -3.15263       -1.67612       -0.28965
B         -4.54934       -0.73632       -0.00346
B         -4.45164       -2.41765        0.53551
B         -3.11905       -3.28271        0.15982
B         -1.76638       -4.13466        0.21177
B         -0.33295       -3.36870       -0.39843
B         -0.35489       -4.72112        0.42029
B          2.46828       -3.41474        0.09205
B          1.08977       -4.15988        0.19775
B          2.55476       -1.73137       -0.65936
B          3.74007       -2.56393        0.27094
B          3.93510       -0.98929       -0.21576
B          1.14566       -2.51031       -0.41989
B          1.19216        2.38487       -0.38379
B         -3.18271        0.08187       -0.59045
B          1.22405       -0.93861       -1.04522
B         -4.16542        2.51429        0.85702
B          5.22825        1.53235        0.69794
B          5.21900       -0.13079        0.32886
B          5.06027       -1.74154        0.78710
B          6.12018       -0.83984        1.49529
B          6.22442        0.64412        1.40975
B         -1.74117       -0.85463       -0.85954
B         -0.11039        1.26028        0.17827
B         -0.29114        1.81359       -1.48182
B         -5.36001        1.64016        1.27572
B         -5.61006        0.10931        1.18459
B         -5.47501       -1.45069        1.08273
B         -0.25006       -0.00484       -1.08525
