45
isomer_2719.log	Energy: -113675.8835450
B          2.50846        1.75978       -0.48761
B          2.42677        3.33479        0.04063
B          1.04685        4.15746        0.12246
B         -0.35177        3.38513       -0.51528
B          1.12939        0.84902       -1.04210
B         -1.78699        0.83050       -0.91275
B         -1.74886        4.14460        0.24515
B          3.95623        0.91093       -0.21578
B         -1.80252        2.53271       -0.48916
B          3.80918        2.53739        0.29331
B         -0.34249        4.74616        0.35137
B         -3.09257        3.28067        0.26504
B         -3.17384        1.68028       -0.26124
B         -4.53153        0.79742        0.23883
B         -0.31204       -1.83034       -1.08599
B         -1.72398       -2.55170       -0.43096
B         -3.12903       -1.73406       -0.22292
B         -4.54599       -0.89446        0.14589
B         -4.32545       -2.50020        0.77000
B         -3.00853       -3.34159        0.27692
B         -1.64203       -4.17052        0.25748
B         -0.26890       -3.40310       -0.53848
B         -0.21954       -4.74852        0.35236
B          2.51367       -3.30356        0.03691
B          1.15714       -4.14961        0.10844
B          2.56285       -1.72996       -0.53026
B          3.86961       -2.48472        0.27553
B          3.98427       -0.84503       -0.22526
B          1.18600       -2.57807       -0.78831
B          1.11881        2.59037       -0.76507
B         -3.29383       -0.01603       -0.60991
B          2.60962        0.01653       -0.74584
B         -4.40656        2.44441        0.74978
B          5.06064        1.73914        0.86446
B          5.19517        0.04471        0.52317
B          5.10437       -1.65148        0.84506
B          6.10446       -0.70643        1.60593
B          6.08389        0.81432        1.61335
B         -1.71775       -0.84316       -0.78550
B          1.17016       -0.85075       -1.06890
B         -0.36953        1.82520       -1.11757
B         -5.47192        1.51825        1.30313
B         -5.61776       -0.03374        1.30685
B         -5.37095       -1.56996        1.33951
B         -0.34318       -0.00275       -1.09266
