45
isomer_0272.log	Energy: -113432.0128539
B          2.49291        1.79203       -0.66322
B          2.46932        3.48270       -0.00910
B          1.11262        4.24360        0.15982
B         -0.33931        3.46811       -0.39806
B          1.18563        0.98203       -1.14509
B         -1.71465        0.89908       -0.72949
B         -1.71787        4.17260        0.44001
B          3.77484        0.97949       -0.20364
B         -1.76871        2.58347       -0.37299
B          3.75650        2.63804        0.12805
B         -0.30498        4.77623        0.51271
B         -3.07094        3.30810        0.44079
B         -3.12164        1.71831       -0.09615
B         -4.56266        0.81325        0.06362
B         -0.32851       -1.66550       -1.26058
B         -1.60944       -2.50029       -0.62239
B         -3.06746       -1.72299       -0.37833
B         -4.38253       -0.83934        0.25488
B         -4.28152       -2.51757        0.59763
B         -2.90404       -3.26510        0.10274
B         -1.50723       -4.02162        0.16297
B          0.00501       -3.22877       -0.44075
B         -0.17913       -4.52690        0.57200
B          2.59756       -3.30824        0.78332
B          1.22821       -4.08997        0.81302
B          2.44627       -1.75636       -0.46486
B          3.70792       -2.26568        0.61003
B          3.69022       -0.77349       -0.03406
B          1.75442       -3.36345       -0.55928
B          1.13808        2.64615       -0.65587
B         -3.23475        0.00577       -0.63013
B          1.27298       -0.64521       -1.11370
B         -4.38462        2.41452        0.80249
B          5.07713        1.80711        0.55967
B          5.05675        0.15097        0.28301
B          5.05830       -1.42516        0.87857
B          6.15555       -0.53028        1.35904
B          6.14921        0.94454        1.23827
B         -1.72414       -0.77317       -1.06383
B          1.14956       -2.23791       -1.48397
B         -0.34960        1.90979       -0.99503
B         -5.42520        1.41342        1.26472
B         -5.62518       -0.12584        1.19538
B         -5.41488       -1.66927        1.13807
B         -0.26000        0.10278       -1.04026
