45
isomer_2721.log	Energy: -112156.4375686
B          2.51399        1.70602       -0.57555
B          2.51105        3.34437       -0.19688
B          1.10829        4.17326        0.07147
B         -0.35769        3.33900       -0.45059
B          1.05002        0.81236       -0.85313
B         -1.82583        0.83894       -0.88470
B         -1.73563        4.12374        0.26341
B          3.97466        0.83343       -0.52849
B         -1.73776        2.44387       -0.32714
B          3.92190        2.52579       -0.07223
B         -0.30910        4.78889        0.37554
B         -3.16616        3.27533        0.30540
B         -3.20160        1.65334       -0.25897
B         -4.65093        0.83956        0.26571
B         -0.39047       -1.71592       -0.97566
B         -1.76036       -2.41181       -0.32305
B         -3.21678       -1.60757       -0.25622
B         -4.65846       -0.77946        0.26707
B         -4.49356       -2.33769        0.51042
B         -3.19643       -3.22888        0.31087
B         -1.77387       -4.09063        0.27032
B         -0.38869       -3.31996       -0.44499
B         -0.35359       -4.76885        0.38358
B          2.47988       -3.35160       -0.19125
B          1.06947       -4.16694        0.07849
B          2.49808       -1.71399       -0.57267
B          3.89830       -2.54598       -0.06796
B          3.96680       -0.85496       -0.52707
B          1.06133       -2.53171       -0.70777
B          1.08492        2.53685       -0.71203
B         -3.29948        0.12297       -0.65268
B          1.04248       -0.80721       -0.85176
B         -4.47153        2.39659        0.50644
B          5.25163        1.71525        0.40755
B          5.23678        0.08394        0.17510
B          5.23552       -1.74705        0.41047
B          6.41637       -0.79724        0.98991
B          6.42359        0.75547        0.98860
B         -1.83349       -0.80707       -0.88331
B          3.04776        0.34947        2.72192
B         -0.37442        1.73416       -0.97856
B         -5.97914        1.69277        0.74948
B         -6.18091       -0.01950        0.81958
B         -5.99112       -1.75037        0.82292
B          1.55418       -0.73097        0.59842
