45
isomer_2722.log	Energy: -110726.1097496
B          2.61649       -1.58553        0.34729
B          2.61820       -3.21705       -0.05983
B          1.21639       -4.05368       -0.30834
B         -0.24338       -3.24172        0.26387
B          1.15222       -0.70994        0.67611
B         -1.72165       -0.76277        0.77738
B         -1.63171       -4.02629       -0.42992
B          4.06808       -0.69924        0.27988
B         -1.63364       -2.35697        0.18982
B          4.01855       -2.38385       -0.20452
B         -0.20275       -4.67662       -0.58845
B         -3.07001       -3.19011       -0.42212
B         -3.10539       -1.57850        0.17125
B         -4.57405       -0.76876       -0.30357
B         -0.30631        1.80287        0.87800
B         -1.69769        2.49766        0.27131
B         -3.14840        1.68171        0.22597
B         -4.59540        0.84991       -0.27640
B         -4.44980        2.41352       -0.49638
B         -3.15580        3.31269       -0.31298
B         -1.74006        4.18630       -0.29208
B         -0.33121        3.41579        0.37561
B         -0.32881        4.87905       -0.42807
B          2.52988        3.47747        0.05254
B          1.10638        4.28471       -0.16838
B          2.57138        1.83373        0.40468
B          3.95165        2.68682       -0.11941
B          4.04581        0.98879        0.30821
B          1.13147        2.63611        0.58909
B          1.19833       -2.43134        0.50404
B         -3.20660       -0.05611        0.59397
B          1.13085        0.90929        0.70329
B         -4.38736       -2.31973       -0.57583
B          5.32915       -1.55328       -0.70235
B          5.30611        0.07357       -0.44107
B          5.28348        1.90827       -0.64425
B          6.45779        0.97922       -1.26887
B          6.47827       -0.57315       -1.29493
B         -1.74336        0.88288        0.80500
B          1.19403       -1.43108        2.35539
B         -0.26080       -1.64647        0.82011
B         -5.90642       -1.62532       -0.76965
B         -6.12443        0.08603       -0.80481
B         -5.94952        1.81833       -0.78248
B          0.11006       -2.71719        0.10190
