45
isomer_2724.log	Energy: -113391.7740558
B          2.72467        1.60239       -0.48240
B          2.66283        3.27087       -0.05410
B          1.33130        4.11999        0.05405
B         -0.15368        3.33516       -0.41382
B          1.25254        0.79607       -0.90018
B         -1.70921        0.81443       -1.07131
B         -1.48234        4.20527        0.13279
B          4.11832        0.81643       -0.34646
B         -1.61429        2.55465       -0.65438
B          4.00042        2.36537        0.28190
B         -0.07282        4.77212        0.26393
B         -2.87111        3.32561        0.17892
B         -3.05771        1.82572       -0.32948
B         -4.38001        0.88624        0.31043
B         -0.36937       -1.65645       -1.02419
B         -1.69513       -2.42816       -0.27449
B         -3.04461       -1.64014       -0.03844
B         -4.49429       -0.76502        0.20604
B         -4.34505       -2.46808        0.77766
B         -3.05957       -3.29557        0.32461
B         -1.65091       -4.10131        0.27470
B         -0.28444       -3.28992       -0.48845
B         -0.23970       -4.68339        0.25261
B          2.57141       -3.30416       -0.30939
B          1.17474       -4.08872       -0.10225
B          2.62110       -1.60622       -0.57256
B          3.91392       -2.47162        0.06349
B          4.06887       -0.85740       -0.37307
B          1.23316       -2.48501       -0.72418
B          1.34520        2.50273       -0.62383
B         -3.11425        0.03403       -0.47641
B          1.19980       -0.76061       -0.89775
B         -4.26735        2.53903        0.66242
B          5.22792        1.60935        0.84786
B          5.25807       -0.07048        0.51740
B          5.07694       -1.74439        0.78484
B          6.11448       -0.85164        1.61315
B          6.22319        0.63251        1.59498
B         -1.79782       -0.81024       -1.46055
B         -1.54426       -0.67733        0.26836
B         -0.19684        1.74557       -0.98016
B         -5.37398        1.65566        1.24893
B         -5.63554        0.09764        1.16112
B         -5.41461       -1.48646        1.23665
B         -0.24999        0.03548       -0.45900
