45
isomer_2725.log	Energy: -113434.6981608
B         -2.60462        1.63098        0.67844
B         -2.52107        3.23769        0.06082
B         -1.16888        4.11608       -0.04468
B          0.30664        3.37642        0.49106
B         -1.13119        0.83787        1.03729
B          1.56542        0.74810        0.09589
B          1.63719        4.14519       -0.34860
B         -4.02068        0.79852        0.41957
B          1.69813        2.50494        0.27347
B         -3.88015        2.36242       -0.14480
B          0.22359        4.72048       -0.36734
B          3.04738        3.30304       -0.37505
B          3.07018        1.69383       -0.06182
B          4.53953        0.82756       -0.01555
B          0.25590       -1.64119        0.63771
B          1.68787       -2.49199        0.52109
B          3.12238       -1.75279        0.40450
B          4.40493       -0.83076       -0.26205
B          4.42695       -2.52825       -0.45874
B          3.01124       -3.29698       -0.11686
B          1.62641       -4.18480       -0.11841
B          0.24407       -3.26735        0.21092
B          0.21190       -4.77010       -0.27166
B         -2.59162       -3.26268       -0.08625
B         -1.21204       -4.10172       -0.18200
B         -2.66731       -1.58241        0.36041
B         -3.99105       -2.41791       -0.26105
B         -4.09985       -0.87618        0.40725
B         -1.27302       -2.45523        0.33348
B         -1.21335        2.55629        0.68142
B          3.13178        0.00996        0.47124
B         -1.20943       -0.69673        0.59994
B          4.42056        2.47166       -0.71207
B         -5.15374        1.65597       -0.67739
B         -5.31243        0.00361       -0.33870
B         -5.28557       -1.67259       -0.69667
B         -6.39097       -0.72001       -1.29857
B         -6.30405        0.76704       -1.33246
B          1.69393       -0.75508        1.08544
B          0.32702        0.07735        1.58293
B          0.35278        1.73360        0.93657
B          5.51296        1.48580       -1.07767
B          5.74367       -0.07304       -0.98222
B          5.59040       -1.64086       -0.90638
B          0.17819       -0.04575       -0.15245
