45
isomer_2727.log	Energy: -112568.3385622
B         -2.57315       -1.49269       -0.51346
B         -2.63649       -3.13439       -0.15513
B         -1.26779       -4.02619        0.08599
B          0.22669       -3.24906       -0.44340
B         -1.07529       -0.65929       -0.79765
B          1.79617       -0.80904       -0.86430
B          1.57765       -4.10143        0.24414
B         -3.99418       -0.55881       -0.43797
B          1.64541       -2.41574       -0.32559
B         -4.00920       -2.25760       -0.00333
B          0.12515       -4.70604        0.36527
B          3.04382       -3.31590        0.27931
B          3.14267       -1.68980       -0.26536
B          4.63171       -0.94589        0.25178
B          0.47140        1.80611       -0.90633
B          1.87747        2.43402       -0.26178
B          3.29851        1.56714       -0.22250
B          4.70909        0.67116        0.27306
B          4.61437        2.23178        0.53762
B          3.35466        3.18039        0.36479
B          1.97022        4.10294        0.35209
B          0.54492        3.40178       -0.35589
B          0.58191        4.84006        0.49088
B         -2.31649        3.55343       -0.06713
B         -0.86921        4.30386        0.19559
B         -2.40971        1.92315       -0.46852
B         -3.76682        2.80800        0.06332
B         -3.91349        1.12753       -0.41578
B         -0.94068        2.68003       -0.61085
B         -1.18291       -2.38235       -0.67746
B          3.30192       -0.16012       -0.64128
B         -0.99789        0.95832       -0.77636
B          4.38811       -2.49674        0.47540
B         -5.29711       -1.39689        0.50247
B         -5.21459        0.23513        0.29003
B         -5.13164        2.06119        0.54797
B         -6.34559        1.15564        1.12986
B         -6.41980       -0.39518        1.10946
B          1.87484        0.83496       -0.84267
B         -3.09240       -3.02517        1.10070
B          0.30652       -1.63977       -0.95167
B          5.92738       -1.86155        0.70889
B          6.20361       -0.16058        0.79769
B          6.08870        1.57667        0.82471
B         -2.24846       -0.57308        0.01339
