45
isomer_2728.log	Energy: -113675.8850209
B          2.56094       -1.73166        0.52865
B          2.51001       -3.30441       -0.03793
B          1.15252       -4.14963       -0.10964
B         -0.27162       -3.40251        0.53796
B          2.60975        0.01498        0.74538
B         -1.72004       -0.84300        0.79409
B         -1.64561       -4.16881       -0.25821
B          3.98286       -0.84759        0.22401
B         -1.72724       -2.55036        0.43286
B          3.86718       -2.48679       -0.27692
B         -0.22432       -4.74829       -0.35306
B         -3.01139       -3.33818       -0.27807
B         -3.13103       -1.73189        0.22312
B         -4.54619       -0.89055       -0.14911
B         -0.36675        1.82591        1.11633
B         -1.79948        2.53335        0.48714
B         -3.17176        1.68213        0.25922
B         -4.53264        0.80133       -0.23439
B         -4.40420        2.44638       -0.75023
B         -3.08869        3.28225       -0.26676
B         -1.74430        4.14509       -0.24682
B         -0.34798        3.38561        0.51544
B         -0.33749        4.74627       -0.35186
B          2.43042        3.33329       -0.04089
B          1.05107        4.15697       -0.12310
B          2.51125        1.75905        0.48960
B          3.81213        2.53537       -0.29253
B          3.95742        0.90801        0.21565
B          1.12170        2.58960        0.76607
B          1.18331       -2.57799        0.78838
B         -3.29366       -0.01486        0.60878
B          1.13147        0.84871        1.04410
B         -4.32927       -2.49728       -0.77034
B          5.10282       -1.65502       -0.84611
B          5.19568        0.04110       -0.52280
B          5.06265        1.73564       -0.86386
B          6.08504        0.81000       -1.61279
B          6.10379       -0.71088       -1.60613
B         -1.78296        0.83080        0.90727
B          1.16859       -0.85041        1.06847
B         -0.31517       -1.83102        1.08864
B         -5.37663       -1.56787       -1.33808
B         -5.61943       -0.03090       -1.30537
B         -5.46990        1.52070       -1.30322
B         -0.34283       -0.00264        1.09705
