45
isomer_2729.log	Energy: -112824.4184904
B          2.60964       -1.64067        0.35369
B          2.61038       -3.27345       -0.04052
B          1.21025       -4.11671       -0.27444
B         -0.25164       -3.31344        0.29332
B          1.14165       -0.77330        0.68704
B         -1.74593       -0.82853        0.79856
B         -1.63793       -4.10313       -0.38584
B          4.03260       -0.74397        0.28368
B         -1.65778       -2.43482        0.21984
B          3.99878       -2.42683       -0.19482
B         -0.20241       -4.73491       -0.54221
B         -3.07865       -3.27481       -0.38023
B         -3.12647       -1.66127        0.20014
B         -4.59886       -0.85581       -0.27170
B         -0.34249        1.75299        0.87676
B         -1.74469        2.43708        0.27209
B         -3.18461        1.61259        0.23701
B         -4.62475        0.76825       -0.25273
B         -4.49750        2.33600       -0.48936
B         -3.19567        3.23809       -0.31021
B         -1.78793        4.11877       -0.29897
B         -0.37647        3.36447        0.36527
B         -0.38487        4.80496       -0.43979
B          2.47435        3.42949        0.03292
B          1.04999        4.23061       -0.18592
B          2.53020        1.79272        0.39452
B          3.89595        2.63118       -0.13736
B          3.99805        0.95371        0.29942
B          1.09153        2.59609        0.57842
B          1.19307       -2.49667        0.52307
B         -3.23372       -0.12391        0.61380
B          1.09472        0.88012        0.70251
B         -4.41769       -2.41695       -0.54132
B          5.28956       -1.59429       -0.69645
B          5.25461        0.03936       -0.44340
B          5.21860        1.85600       -0.65769
B          6.38226        0.93490       -1.27266
B          6.42171       -0.60778       -1.29344
B         -1.77568        0.82248        0.81630
B          2.32588       -1.24571        1.86211
B         -0.28642       -1.71259        0.83797
B         -5.91049       -1.70324       -0.72541
B         -6.12758       -0.01226       -0.76587
B         -5.96564        1.69193       -0.75501
B          0.33207       -0.19674        0.10690
