45
isomer_0273.log	Energy: -114153.5445447
B          0.36566        1.80465        0.49521
B         -0.83249        2.78206        1.44512
B         -2.34613        3.07476        0.99835
B         -2.88302        2.54330       -0.52929
B         -0.25556        1.29207       -1.14188
B         -1.68926        0.23655       -1.61261
B         -4.40769        1.82543       -0.20908
B          1.79039        1.68673        2.02047
B         -3.23614        1.11555       -1.42950
B          0.23449        2.05085        2.27108
B         -3.84658        2.87490        0.71059
B         -4.62599        0.36142       -0.78163
B         -3.28585       -0.55296       -1.10035
B         -3.20762       -2.14206       -0.52105
B          0.25083        0.02630        0.13530
B          1.19870       -1.45881       -1.16660
B         -0.30086       -1.65333       -0.13485
B         -1.77470       -2.48261        0.28261
B         -0.32809       -2.73395        1.31666
B          1.07540       -2.64285        0.33475
B          2.43329       -2.57302       -0.56485
B          2.89203       -1.06755       -1.52350
B          3.80291       -1.82008       -0.12894
B          4.69910        1.05256       -1.31741
B          4.45339       -0.45122       -0.56371
B          2.30401        1.67068        0.30606
B          4.16494        1.25965        0.19572
B          3.32445        1.33369        1.63668
B          2.93745        1.13772       -1.25500
B         -1.15814        2.59143       -0.12722
B         -1.81261       -1.41594       -1.07441
B          1.36613        1.53576       -1.06610
B         -4.65710       -1.12007       -0.25501
B          0.37371        0.46833        1.91676
B          2.01397       -0.01079        1.59446
B          3.48612       -0.29299        0.84710
B          2.27532       -1.48618        0.82498
B          0.52414       -1.20988        1.48133
B         -0.25579       -0.61721       -1.51773
B          3.93662        0.01964       -2.16458
B         -1.77983        1.88286       -1.56518
B         -4.34915       -2.32894        0.62628
B         -3.13134       -3.11296        1.07515
B         -1.68498       -3.39844        1.59124
B          1.94586       -0.05507       -0.35538
