45
isomer_2730.log	Energy: -113239.1192575
B          2.57098       -1.47570        0.44650
B          2.61765       -3.12737        0.08558
B          1.34496       -3.93673       -0.25823
B         -0.14976       -3.24019        0.57620
B          1.06387       -0.83172        0.09153
B         -1.69515       -0.77223        0.88787
B         -1.52270       -3.98154       -0.31992
B          3.98793       -0.68160        0.36288
B         -1.65100       -2.40228        0.37795
B          3.97317       -2.24583       -0.21612
B         -0.06481       -4.35532       -0.60706
B         -2.93119       -3.26358       -0.25897
B         -3.09448       -1.69146        0.29568
B         -4.51929       -0.87028       -0.08017
B         -0.41902        1.70671        0.91911
B         -1.81058        2.50630        0.35884
B         -3.22673        1.69121        0.23163
B         -4.61653        0.78296       -0.09814
B         -4.52823        2.42280       -0.63456
B         -3.15325        3.22827       -0.34767
B         -1.74287        4.08127       -0.39076
B         -0.39189        3.37813        0.41103
B         -0.33177        4.67583       -0.49723
B          2.45629        3.36689        0.21270
B          1.06664        4.13273       -0.06367
B          2.50531        1.67440        0.55441
B          3.81456        2.55629       -0.09384
B          3.95535        0.97145        0.38506
B          1.10563        2.54727        0.61424
B          1.33811       -2.45748        1.20195
B         -3.27087        0.01807        0.61335
B          1.05216        0.83735        0.86046
B         -4.37005       -2.47544       -0.59114
B          5.18709       -1.49210       -0.76285
B          5.17113        0.17721       -0.45190
B          5.08179        1.86075       -0.70081
B          6.21194        0.98100       -1.36268
B          6.26093       -0.50907       -1.40987
B         -1.74845        0.83835        0.83860
B          0.62906       -0.44975        1.58451
B         -0.25653       -1.64019        1.04036
B         -5.52136       -1.62514       -1.06297
B         -5.80186       -0.06066       -1.04928
B         -5.65045        1.46207       -1.10234
B          1.07427       -2.31162       -0.59026
