45
isomer_2731.log	Energy: -113446.1978988
B          2.54002        1.70481       -0.55136
B          2.47875        3.40869        0.12848
B          1.10123        4.13579        0.23272
B         -0.32653        3.38787       -0.46934
B          1.20717        0.89716       -0.85079
B         -1.78031        0.87421       -1.01697
B         -1.75142        4.09741        0.28347
B          3.92617        0.98384       -0.17776
B         -1.76855        2.50975       -0.45009
B          3.77895        2.57825        0.28151
B         -0.33746        4.66658        0.48240
B         -3.10709        3.24696        0.22764
B         -3.17177        1.68669       -0.35377
B         -4.49606        0.72096        0.10567
B         -0.27244       -1.81194       -1.46160
B         -1.39752       -2.26522        0.25267
B         -2.98627       -1.74462       -0.13559
B         -4.48231       -0.93598        0.07337
B         -4.20476       -2.49946        0.80810
B         -2.80069       -3.22248        0.55322
B         -1.44243       -4.04914        0.43122
B         -0.21433       -3.24666       -0.52372
B         -0.06131       -4.63485        0.33584
B          2.64753       -3.26414       -0.11636
B          1.31193       -4.05470        0.00360
B          2.64350       -1.57254       -0.56666
B          3.95086       -2.38813        0.08959
B          3.98451       -0.77862       -0.24000
B          1.25472       -2.46592       -0.75500
B          1.15118        2.53234       -0.47553
B         -3.21064       -0.07742       -0.66219
B          1.21441       -0.76269       -0.82615
B         -4.46538        2.38839        0.56390
B          5.11324        1.76026        0.75810
B          5.22855        0.13562        0.31961
B          5.26737       -1.53696        0.62915
B          6.28429       -0.63583        1.33212
B          6.20014        0.85593        1.42054
B         -1.65023       -0.88854       -0.89513
B         -0.25106        0.01352       -1.17839
B         -0.33748        1.79325       -1.03079
B         -5.56127        1.46036        1.02221
B         -5.67940       -0.11365        1.06967
B         -5.41527       -1.62841        1.16068
B         -0.11253       -1.26077        0.17174
