45
isomer_2732.log	Energy: -113375.6764268
B          2.66313       -1.48646        0.73053
B          2.51705       -2.95319       -0.01685
B          1.57026       -4.11191        0.41849
B          0.16383       -3.24107        0.58517
B          2.09425        0.07631        0.75867
B         -1.59656       -0.86845        0.78677
B         -1.06613       -4.16470       -0.31222
B          3.85195       -0.48203        0.11671
B         -1.17203       -2.39596        0.08310
B          3.92621       -2.06032       -0.33421
B          0.23841       -4.79354        0.01007
B         -2.38651       -3.35271       -0.66730
B         -2.71596       -1.86790       -0.10047
B         -4.23395       -1.14700       -0.46468
B         -0.56901        1.75001        1.18545
B         -2.04731        2.38803        0.71088
B         -3.38771        1.44162        0.43178
B         -4.64942        0.40188       -0.01852
B         -4.70487        2.11544       -0.42610
B         -3.49859        3.04270        0.09056
B         -2.22733        3.99656       -0.02895
B         -0.73543        3.41387        0.64214
B         -0.91209        4.65382       -0.35030
B          1.95026        3.40216       -0.30357
B          0.54294        4.14333       -0.22458
B          2.22343        1.84825        0.53899
B          3.32399        2.75014       -0.51471
B          3.60095        1.19341        0.00708
B          0.83033        2.74275        0.73417
B          1.50469       -2.60844        1.47953
B         -3.16785       -0.26075        0.55822
B          0.97600        1.09634        1.23517
B         -3.77563       -2.65225       -1.19369
B          5.08805       -1.19144       -0.90481
B          5.01863        0.51523       -0.54635
B          4.70656        2.13071       -0.99245
B          5.81798        1.31895       -1.70997
B          5.95102       -0.16022       -1.70501
B         -1.77303        0.72936        0.88197
B          1.20413       -0.85935        1.71120
B         -0.14529       -1.63041        1.21625
B         -5.01438       -1.88255       -1.62353
B         -5.51181       -0.41464       -1.36129
B         -5.59358        1.09214       -1.12095
B          1.12043       -1.65777        0.00763
