45
isomer_2735.log	Energy: -112920.7588665
B         -2.63929       -1.46641       -0.42588
B         -2.65477       -3.23682        0.02033
B         -1.30807       -4.10498        0.28462
B          0.22670       -3.27929       -0.30318
B         -1.25810       -0.50227       -0.76083
B          1.73159       -0.76652       -0.82921
B          1.55247       -4.07936        0.38655
B         -3.98549       -0.61137       -0.33987
B          1.67022       -2.41136       -0.22151
B         -3.95973       -2.26123        0.14955
B          0.11520       -4.64495        0.52818
B          2.97019       -3.24245        0.38889
B          3.09098       -1.64600       -0.17819
B          4.53282       -0.82111        0.28491
B          0.34839        1.80736       -0.93564
B          1.75350        2.50693       -0.33291
B          3.16860        1.67985       -0.26338
B          4.56500        0.82825        0.23651
B          4.50101        2.45055        0.50542
B          3.14974        3.27308        0.27419
B          1.77485        4.15873        0.25594
B          0.38051        3.43293       -0.41728
B          0.38693        4.80717        0.38111
B         -2.45218        3.51236       -0.08041
B         -1.03980        4.27469        0.12288
B         -2.52224        1.85955       -0.45110
B         -3.86293        2.68711        0.10576
B         -3.95604        1.07822       -0.34771
B         -1.11106        2.66337       -0.62564
B         -1.25121       -2.33556       -0.52798
B          3.21290       -0.03896       -0.60060
B         -1.11256        0.97771       -0.76783
B          4.41927       -2.43869        0.59956
B         -5.22365       -1.46253        0.66227
B         -5.18950        0.19996        0.40892
B         -5.13925        1.93515        0.61603
B         -6.28522        1.02020        1.23897
B         -6.33545       -0.47966        1.27777
B          1.76160        0.89350       -0.86858
B         -1.49087       -3.63222       -1.30176
B          0.36793       -1.61872       -0.86530
B          5.74089       -1.62337        0.77545
B          5.93962        0.00919        0.78522
B          5.80656        1.58099        0.76692
B         -0.39004       -0.93302        0.38884
