45
isomer_2737.log	Energy: -113456.9749829
B          2.63813       -1.52827        0.57942
B          2.66558       -3.24357        0.13126
B          1.37155       -4.06804        0.13176
B         -0.17731       -3.32605        0.73210
B          1.24631       -0.72181        0.95676
B         -1.65896       -0.93762        0.98534
B         -1.38104       -4.10883       -0.29857
B          3.94805       -0.73247        0.20016
B         -1.28479       -2.33249       -0.19058
B          3.93032       -2.33996       -0.12462
B         -0.00114       -4.68074       -0.16413
B         -2.71244       -3.28121       -0.54713
B         -2.91487       -1.82301        0.11744
B         -4.27595       -0.90918       -0.42435
B         -0.35211        1.79371        0.99960
B         -1.84018        2.52936        0.62854
B         -3.18019        1.63477        0.33709
B         -4.55715        0.67775        0.00396
B         -4.48162        2.36829       -0.49884
B         -3.17285        3.24981       -0.10799
B         -1.83491        4.12111       -0.16640
B         -0.38396        3.37751        0.43208
B         -0.43462        4.72034       -0.40115
B          2.40893        3.44428       -0.12154
B          1.01917        4.17521       -0.20009
B          2.52375        1.76216        0.62825
B          3.68848        2.60435       -0.32764
B          3.88805        1.03288        0.14290
B          1.11468        2.54411        0.45397
B          1.24955       -2.41677        0.71411
B         -3.17567       -0.12812        0.58597
B          1.20667        0.97325        1.08389
B         -4.08310       -2.53948       -0.95200
B          5.20722       -1.48686       -0.72487
B          5.17020        0.18258       -0.40093
B          5.02106        1.79874       -0.85073
B          6.08995        0.90138       -1.54817
B          6.19350       -0.58528       -1.45662
B         -1.75190        0.83596        0.88244
B         -0.04305       -1.27842       -0.13711
B         -0.28246       -1.82415        1.50671
B         -5.29127       -1.68204       -1.35789
B         -5.57913       -0.16074       -1.22743
B         -5.48361        1.39583       -1.07651
B         -0.24687        0.01177        1.07156
