45
isomer_2738.log	Energy: -113424.4274799
B          2.43650       -1.57517        0.35113
B          2.37730       -3.18476       -0.10305
B          1.06715       -4.02484        0.09040
B         -0.35507       -3.34104        0.59088
B          2.49261        0.06099        0.81695
B         -1.68106       -0.71550        0.55991
B         -1.76090       -4.16509       -0.13765
B          3.85993       -0.76224        0.07307
B         -1.77168       -2.43850        0.24853
B          3.79725       -2.37510       -0.28637
B         -0.39400       -4.74730       -0.14332
B         -3.13816       -3.25864       -0.25278
B         -3.10451       -1.60771       -0.01235
B         -4.51488       -0.71852       -0.32805
B         -0.33293        1.75125        1.01234
B         -1.74606        2.56567        0.44093
B         -3.21742        1.76303        0.29282
B         -4.66049        0.90812        0.10518
B         -4.50188        2.51360       -0.52258
B         -3.11118        3.35396       -0.18387
B         -1.72571        4.15927       -0.26071
B         -0.32650        3.44858        0.59477
B         -0.31260        4.68431       -0.43993
B          2.52862        3.33410       -0.00639
B          1.08318        4.14305       -0.10378
B          2.55019        1.74510        0.57609
B          3.86208        2.56847       -0.20189
B          4.03454        0.94831        0.27827
B          1.10263        2.60030        0.61953
B          1.15797       -2.65559        1.29645
B         -3.19277        0.07287        0.45411
B          1.09036        0.89983        0.91392
B         -4.49643       -2.40621       -0.66357
B          5.08834       -1.61199       -0.83350
B          5.21575        0.04099       -0.42584
B          5.21874        1.71690       -0.64813
B          6.29572        0.79216       -1.34567
B          6.20972       -0.70888       -1.45726
B         -1.68581        0.87313        0.60983
B          0.92102       -2.17199       -0.37437
B         -0.29845       -1.64276        0.69522
B         -5.70184       -1.50787       -1.01400
B         -5.88917        0.04174       -1.00143
B         -5.58574        1.56443       -1.04322
B          1.11561       -0.93048        1.16938
