45
isomer_2740.log	Energy: -113523.4038695
B         -2.63272        1.67985        0.60718
B         -2.64172        3.28056        0.06181
B         -1.25715        4.08694       -0.20084
B          0.21941        3.34685        0.25216
B         -1.14149        0.81643        0.88293
B          1.66373        0.84119        0.57098
B          1.56676        4.14205       -0.43451
B         -4.03946        0.79356        0.48176
B          1.65631        2.49645        0.23752
B         -4.01071        2.46270       -0.00751
B          0.13240        4.69508       -0.56358
B          3.00907        3.37989       -0.32045
B          3.14960        1.80276        0.18100
B          4.64125        1.01828        0.18665
B          0.39276       -1.62869        0.87395
B          1.81315       -2.48634        0.36943
B          3.23113       -1.59028        0.33920
B          4.62226       -0.64809        0.00066
B          4.60112       -2.28621       -0.46824
B          3.26829       -3.19840       -0.08929
B          1.97261       -4.06095       -0.18420
B          0.33546       -3.36084        0.62828
B          0.61192       -4.32814       -0.70319
B         -2.20451       -3.06485       -0.49717
B         -0.83312       -3.77955       -0.64905
B         -2.43896       -1.83216        0.64281
B         -3.68693       -2.40045       -0.45078
B         -3.93854       -0.95368        0.31657
B         -1.13495       -2.76358        1.12412
B         -1.22282        2.49591        0.54407
B          3.25914        0.13785        0.66513
B         -1.04484       -0.84252        0.80503
B          4.40421        2.64941       -0.57158
B         -5.29372        1.62832       -0.43108
B         -5.33060       -0.08418       -0.17162
B         -5.05490       -1.70202       -0.75484
B         -6.20658       -0.77569       -1.33006
B         -6.32926        0.70726       -1.15640
B          1.78764       -0.76431        0.73816
B         -2.59017       -0.03173        0.84921
B          0.28601        1.66284        0.74584
B          5.54261        1.70121       -0.96271
B          5.85609        0.20813       -0.86085
B          5.73694       -1.36959       -0.86680
B         -0.72670       -2.08125       -0.42969
