45
isomer_2741.log	Energy: -113476.8254776
B          2.98867       -1.71159        0.54217
B          2.81511       -3.17644       -0.11289
B          1.46843       -3.87868       -0.29892
B          0.01507       -3.15385        0.23663
B          2.16662       -0.33549        0.62809
B         -1.72853       -0.88238        0.77980
B         -1.34138       -4.10934       -0.39550
B          4.13252       -0.71002        0.27439
B         -1.53594       -2.52794        0.39883
B          4.29835       -2.32177       -0.22274
B          0.10358       -4.52879       -0.57107
B         -2.76993       -3.43781       -0.32144
B         -3.03899       -1.87555        0.25436
B         -4.56945       -1.12559       -0.01965
B         -0.55687        1.77290        1.06879
B         -1.98731        2.44382        0.47913
B         -3.37304        1.58738        0.38471
B         -4.58174        0.55129       -0.27277
B         -4.65451        2.22412       -0.63804
B         -3.34955        3.13286       -0.22937
B         -2.01919        4.00999       -0.31983
B         -0.57322        3.34031        0.44424
B         -0.63656        4.56900       -0.57226
B          2.15887        3.25584       -0.35459
B          0.80066        4.02370       -0.37568
B          2.32853        1.61665        0.37309
B          3.54083        2.53414       -0.47486
B          3.77396        0.97517        0.03911
B          0.94995        2.54163        0.55082
B          1.43530       -2.07073        0.32394
B         -3.33079       -0.15051        0.64391
B          1.05705        0.89465        1.04506
B         -4.18046       -2.71451       -0.67336
B          5.56687       -1.38085       -0.51689
B          5.25181        0.31929       -0.30235
B          4.95393        1.91850       -0.83012
B          6.23767        1.13944       -1.27472
B          6.53529       -0.30964       -1.08967
B         -1.97087        0.79371        1.12358
B          0.97101       -0.73070        1.63652
B         -0.18231       -1.61463        0.70561
B         -5.31585       -1.85209       -1.22197
B         -5.71095       -0.33879       -1.20079
B         -5.70928        1.25266       -1.16621
B         -0.43335        0.04065        1.52292
