45
isomer_2742.log	Energy: -113404.9450698
B         -2.53248       -1.44906       -0.45262
B         -2.49811       -3.17809        0.17046
B         -1.24440       -3.93085        0.87783
B          0.19900       -3.27443       -0.61131
B         -1.27794       -0.69929       -1.11619
B          1.78145       -0.80696       -1.01070
B          1.58138       -4.01978        0.23287
B         -3.92183       -0.71873       -0.07980
B          1.73136       -2.50337       -0.53988
B         -3.83320       -2.29764        0.29592
B          0.10241       -4.53594        0.49066
B          2.96097       -3.22980        0.31094
B          3.18162       -1.65952       -0.39138
B          4.55588       -0.86761        0.17121
B          0.32082        1.81577       -1.02459
B          1.83495        2.63428       -0.51069
B          3.17264        1.72871       -0.26037
B          4.56443        0.85985        0.20245
B          4.42564        2.49176        0.73474
B          3.12767        3.34960        0.27194
B          1.72539        4.15827        0.29839
B          0.30384        3.40854       -0.39507
B          0.28688        4.74505        0.46140
B         -2.53679        3.45586        0.01715
B         -1.14973        4.18490        0.16094
B         -2.61821        1.77965       -0.70830
B         -3.82971        2.62290        0.20232
B         -3.96875        1.02950       -0.19621
B         -1.19965        2.58052       -0.58588
B         -1.25909       -2.38323       -0.90584
B          3.28946        0.01977       -0.62405
B         -1.26487        0.98175       -1.19373
B          4.35049       -2.46022        0.73435
B         -5.16962       -1.49551        0.82432
B         -5.26160        0.15597        0.34116
B         -5.18222        1.80402        0.72111
B         -6.23023        0.91651        1.44595
B         -6.22446       -0.58996        1.47955
B          1.78678        0.96153       -0.92373
B         -1.23638       -4.04971       -0.70096
B          0.29595       -1.55424       -0.97953
B          5.45445       -1.57826        1.30164
B          5.65174       -0.02432        1.28147
B          5.48182        1.53149        1.31616
B          0.27228        0.09030       -1.13411
