45
isomer_2743.log	Energy: -112350.4995016
B         -2.59631       -1.66806       -0.52950
B         -2.58312       -3.30822       -0.16452
B         -1.18216       -4.14201        0.07072
B          0.26988       -3.30903       -0.46584
B         -1.14051       -0.78795       -0.82242
B          1.72534       -0.79874       -0.90048
B          1.65466       -4.09705        0.21614
B         -4.04596       -0.79334       -0.44866
B          1.65102       -2.41691       -0.35666
B         -3.98483       -2.47948       -0.00921
B          0.23275       -4.75098        0.34249
B          3.08205       -3.24911        0.24369
B          3.11115       -1.62486       -0.30248
B          4.56607       -0.81054        0.20534
B          0.29413        1.76117       -0.93883
B          1.67399        2.44899       -0.30210
B          3.12479        1.64412       -0.26730
B          4.57014        0.80765        0.22219
B          4.41914        2.36719        0.49069
B          3.10745        3.25463        0.31679
B          1.69000        4.11597        0.30911
B          0.29549        3.35985       -0.39000
B          0.27868        4.78145        0.44943
B         -2.55794        3.38687       -0.08994
B         -1.15310        4.19464        0.16323
B         -2.59286        1.75183       -0.49428
B         -3.97173        2.56960        0.04694
B         -4.04186        0.89974       -0.42958
B         -1.16358        2.57790       -0.63838
B         -1.17749       -2.50396       -0.69580
B          3.20297       -0.08094       -0.68133
B         -1.14888        0.86002       -0.81289
B          4.40246       -2.37956        0.43835
B         -5.29815       -1.68130        0.50047
B         -5.28956       -0.04442        0.28373
B         -5.28519        1.76799        0.53651
B         -6.44197        0.81249        1.12491
B         -6.45458       -0.72547        1.11148
B          1.73329        0.85112       -0.88194
B         -0.51905       -1.33981        2.26269
B          0.27666       -1.69870       -0.97826
B          5.88228       -1.65070        0.65683
B          6.07735        0.03809        0.73745
B          5.88966        1.73978        0.76039
B         -0.58255        0.35007        0.11083
