45
isomer_2744.log	Energy: -111306.5991076
B         -2.58170        1.72366        0.36424
B         -2.55986        3.36589        0.00341
B         -1.14600        4.18976       -0.21806
B          0.30089        3.34187        0.33439
B         -1.13050        0.81898        0.67162
B          1.74354        0.82922        0.78110
B          1.70177        4.12645       -0.33368
B         -4.04514        0.85977        0.26840
B          1.67906        2.44043        0.23863
B         -3.97113        2.55654       -0.16807
B          0.28232        4.80068       -0.47713
B          3.12841        3.27059       -0.34615
B          3.14001        1.64254        0.20152
B          4.59869        0.82631       -0.29255
B          0.29279       -1.71843        0.80583
B          1.67614       -2.41498        0.18301
B          3.13805       -1.61820        0.16416
B          4.59772       -0.79262       -0.31110
B          4.43124       -2.34724       -0.57553
B          3.12450       -3.23326       -0.42065
B          1.69684       -4.08747       -0.42778
B          0.29689       -3.31672        0.25811
B          0.27658       -4.75654       -0.58661
B         -2.56388       -3.32972       -0.07330
B         -1.15101       -4.14999       -0.31360
B         -2.58375       -1.69616        0.32506
B         -3.97418       -2.51495       -0.22617
B         -4.04615       -0.82854        0.24906
B         -1.15552       -2.52324        0.49011
B         -1.15247        2.54503        0.54817
B          3.21913        0.10756        0.58127
B         -1.13147       -0.80050        0.65307
B          4.43408        2.38678       -0.52130
B         -5.29165        1.75854       -0.69225
B         -5.29170        0.12480       -0.47702
B         -5.29373       -1.70357       -0.73191
B         -6.45345       -0.74112       -1.33279
B         -6.45251        0.81150       -1.31500
B          1.74255       -0.81670        0.76224
B         -1.35597       -1.31364        2.69909
B          0.29486        1.73146        0.84535
B          5.94398        1.67719       -0.73110
B          6.13854       -0.03533       -0.81411
B          5.93978       -1.76499       -0.84116
B         -0.48658        0.56835        0.79919
