45
isomer_2745.log	Energy: -113633.7298472
B          1.81966       -2.38670        0.39905
B          1.24657       -3.07466       -1.22839
B         -0.32574       -3.28528       -1.19558
B         -1.37654       -3.36891        0.26064
B          0.63138       -1.73568        1.46262
B         -1.86285       -0.62646        1.05731
B         -3.04525       -3.33699       -0.38931
B          3.07266       -1.23044        0.10878
B         -2.50663       -2.17197        0.73757
B          2.22982       -1.89470       -1.22138
B         -1.87869       -3.54613       -1.26541
B         -4.12409       -2.25690        0.07125
B         -3.55155       -0.83197        0.54165
B         -4.40160        0.60522        0.11402
B          0.56943        0.98038        0.52417
B         -0.45109        2.33238        0.11290
B         -2.08198        2.25428        0.13665
B         -3.76451        2.14628        0.34943
B         -2.98728        3.52329       -0.49899
B         -1.35539        3.64156       -0.37037
B          0.29332        3.78151       -0.51103
B          1.21094        2.35541       -0.10629
B          1.81230        3.77786       -0.51293
B          3.75991        1.84968        0.95834
B          2.87933        2.77976        0.04995
B          3.28684        0.09022        1.30705
B          4.93177        0.78692        1.20013
B          4.56115       -0.81429        0.54390
B          2.19608        1.20376        0.69434
B          0.46394       -1.67973       -0.64298
B         -2.86384        0.80670        0.80476
B          1.59490       -0.50928        1.02872
B         -5.07365       -0.95844       -0.17547
B          3.40250       -0.68893       -1.46673
B          3.88558        0.74910       -0.37335
B          5.83424        0.10783        0.17437
B          5.27593       -0.00819       -1.22125
B          4.17738        0.32717       -2.13173
B         -1.15549        0.81962        0.54277
B          0.32785       -3.15945        0.44513
B         -0.94634       -2.01915        1.40434
B         -5.80140        0.35768       -0.59393
B         -5.30264        1.80297       -0.67167
B         -4.38873        3.07782       -0.80661
B         -0.21823       -0.57314        0.35356
