45
isomer_2746.log	Energy:  -70185.4394535
B          2.53431        1.59982       -0.64515
B          2.49175        3.08996        0.24024
B          1.08949        3.97729        0.19601
B         -0.28942        3.31575       -0.53607
B          1.04851        0.72640       -0.99131
B         -1.80297        0.80461       -0.76519
B         -1.70253        4.10595        0.18287
B          4.01054        2.28401       -0.49234
B         -1.79476        2.50768       -0.49777
B          3.64075        2.41017        1.03740
B         -0.27165        4.62422        0.40333
B         -3.08620        3.33406        0.15189
B         -3.29455        1.75468       -0.39002
B         -4.71472        0.96430       -0.11049
B         -0.44613       -1.75034       -0.94574
B         -1.89300       -2.49740       -0.38074
B         -3.24031       -1.61911       -0.11546
B         -4.68198       -0.72627        0.14808
B         -4.59092       -2.37785        0.66508
B         -3.24236       -3.20885        0.33050
B         -1.85202       -4.10298        0.34546
B         -0.47633       -3.37280       -0.35916
B         -0.46596       -4.75176        0.44749
B          2.35272       -3.44909       -0.08151
B          0.94525       -4.21134        0.14032
B          2.44993       -1.85994       -0.56680
B          3.75425       -2.65883        0.12125
B          3.93483       -1.05192       -0.43872
B          0.99969       -2.63541       -0.66297
B          1.05370        2.38582       -0.52928
B         -3.30689        0.03339       -0.61101
B          0.98977       -0.91365       -0.95235
B         -4.46607        2.53284        0.56831
B          4.97334        1.55071        0.85270
B          5.00499       -0.17143        0.51892
B          5.01353       -1.86803        0.69295
B          6.09179       -0.93375        1.39231
B          6.08464        0.56679        1.44282
B         -1.80728       -0.80313       -0.75574
B          3.99230        0.68046       -0.52088
B         -0.38131        1.61176       -0.90345
B         -5.51258        1.60024        1.15396
B         -5.85843        0.10035        1.06950
B         -5.75303       -1.44337        1.07630
B          2.47534       -0.15403       -0.92554
