45
isomer_2748.log	Energy: -113477.8989818
B         -2.53472        1.64196        0.55433
B         -2.52072        3.31998       -0.02931
B         -1.14797        4.09917       -0.26451
B          0.29467        3.38503        0.34423
B         -1.15973        0.89479        0.97776
B          1.77438        0.90720        0.95620
B          1.67107        4.15600       -0.41729
B         -3.94845        0.91369        0.29099
B          1.73866        2.55747        0.42381
B         -3.86087        2.50379       -0.06712
B          0.26195        4.70034       -0.56860
B          3.04317        3.30239       -0.37288
B          3.14060        1.76671        0.22428
B          4.48814        0.81283       -0.21946
B          0.19658       -1.60447        0.45901
B          1.67762       -2.47122        0.38754
B          3.12473       -1.68709        0.40556
B          4.58318       -0.82198        0.15991
B          4.39933       -2.44184       -0.44701
B          3.04208       -3.29519       -0.05757
B          1.67705       -4.12362       -0.12446
B          0.15569       -3.32105        0.57978
B          0.33082       -4.54366       -0.54262
B         -2.45517       -3.12794       -0.45393
B         -1.09454       -3.88967       -0.49271
B         -2.56031       -1.72093        0.60474
B         -3.81454       -2.31233       -0.41926
B         -3.92920       -0.82993        0.25054
B         -1.31762       -2.75993        1.06050
B         -1.18510        2.60141        0.64447
B          3.26114        0.07167        0.68099
B         -1.27404       -0.74713        0.74744
B          4.40224        2.47270       -0.73870
B         -5.24138        1.70920       -0.48446
B         -5.28390        0.05183       -0.09999
B         -5.20033       -1.53518       -0.67637
B         -6.31269       -0.62411       -1.22355
B         -6.32693        0.85085       -1.12553
B          1.68381       -0.74768        0.74736
B         -1.08333       -2.06005       -0.53957
B          0.33447        1.86466        1.03271
B          5.54812        1.54567       -1.14591
B          5.71996        0.00199       -1.06914
B          5.45054       -1.51886       -1.01095
B          0.25155        0.05250        1.05876
