45
isomer_2749.log	Energy: -113455.9004113
B         -2.87181        0.94001        0.34974
B         -2.85049        2.63144       -0.63818
B         -1.56723        3.46894       -0.77638
B         -0.12776        3.04461        0.05197
B         -1.32663        0.36187        0.60760
B          1.64040        0.82183        0.75583
B          1.23117        3.95077       -0.59466
B         -4.43584        0.92832        0.81583
B          1.46027        2.42465        0.16888
B         -4.18116        2.03451       -0.30465
B         -0.21003        4.23519       -0.98146
B          2.73659        3.36897       -0.30838
B          2.97663        1.88777        0.44288
B          4.53504        1.17609        0.26023
B          0.48852       -2.23671        1.18977
B          1.92978       -2.46713        0.28470
B          3.24172       -1.51209        0.30953
B          4.53204       -0.47904       -0.08061
B          4.69837       -2.08238       -0.57206
B          3.31217       -2.94665       -0.50001
B          1.93876       -3.60888       -1.01471
B          0.50026       -3.34972       -0.03755
B          0.54077       -3.90338       -1.52473
B         -2.21589       -2.68791       -0.76486
B         -0.88814       -3.42614       -1.15560
B         -2.23108       -1.18590        0.46862
B         -3.56272       -2.05754       -0.40172
B         -3.84571       -0.62772        0.36108
B         -0.96919       -2.39949        0.17533
B         -1.47731        1.88169       -0.07002
B          3.20755        0.16242        0.75077
B         -0.87401       -1.15521        1.40171
B          4.22100        2.76314       -0.40853
B         -5.72519        1.43029       -0.13978
B         -5.53157       -0.19199        0.29781
B         -5.06139       -1.63876       -0.45999
B         -6.39259       -0.96295       -0.86135
B         -6.75770        0.45350       -0.66200
B          1.83660       -0.88443        1.25737
B          0.61570       -1.15268        2.36085
B          0.06137        1.48873        0.63099
B          5.47490        1.97274       -0.75401
B          5.84517        0.47260       -0.71683
B          5.82461       -1.09863       -0.78228
B          0.25406        0.15526        1.56887
