45
isomer_0275.log	Energy: -113555.4159846
B          2.14052        1.12398       -0.01656
B          2.03793        2.76089        0.87891
B          0.68750        3.59661        0.98979
B         -0.58218        3.17691       -0.10041
B          0.96718        1.05157       -1.31107
B         -1.87220        0.78408       -1.13382
B         -2.05232        3.81745        0.55654
B          3.76877        0.76641       -0.05621
B         -1.96800        2.45014       -0.71017
B          3.45199        2.31150        0.50359
B         -0.71142        4.23451        1.10378
B         -3.38420        3.06724        0.11921
B         -3.32097        1.55182       -0.44039
B         -4.64586        0.51579       -0.05342
B         -0.13524       -1.61251       -0.86827
B         -1.52932       -2.48817       -0.34847
B         -3.04294       -1.84175       -0.34231
B         -4.57384       -1.15330       -0.23377
B         -4.26498       -2.64474        0.59211
B         -2.76097       -3.29598        0.41570
B         -1.31394       -3.89994        0.68190
B          0.04247       -3.06714       -0.13343
B          0.13595       -4.19269        1.05663
B          2.68855       -2.42297        0.66561
B          1.38967       -3.41062        0.84359
B          2.84691       -1.62116       -1.06348
B          4.04391       -1.83245        0.44555
B          4.19205       -0.76406       -0.85162
B          1.42073       -2.18034       -0.50619
B          0.96514        2.39001       -0.25730
B         -3.28548       -0.19349       -0.78643
B          1.40563       -0.46415       -0.85460
B         -4.71783        2.19074        0.34851
B          4.97333        1.84654        0.47257
B          5.36320        0.35954       -0.37460
B          5.57554       -1.22384        0.17415
B          6.68967       -0.32925        0.51112
B          6.26820        1.06567        0.78756
B         -1.66179       -0.82625       -0.98607
B          2.71088       -0.59465        0.35721
B         -0.47835        1.89957       -1.19358
B         -5.84135        1.20628        0.73383
B         -5.87484       -0.33338        0.79589
B         -5.46248       -1.81750        0.95057
B         -0.28524        0.04308       -1.36215
