45
isomer_2750.log	Energy: -113408.3254269
B         -2.53686        1.63055        0.49660
B         -2.54770        3.40043        0.04282
B         -1.19495        4.17359       -0.02742
B          0.27310        3.43442        0.56627
B         -1.18714        0.87948        0.84041
B          1.67441        0.83508        0.72451
B          1.65556        4.18454       -0.19097
B         -3.94011        0.93337        0.18283
B          1.69183        2.52572        0.36801
B         -3.85632        2.55894       -0.14271
B          0.23484        4.77305       -0.28178
B          3.02880        3.32957       -0.25234
B          3.09244        1.71386        0.14147
B          4.51123        0.82510       -0.18496
B          0.27969       -1.76407        1.55464
B          1.55693       -2.44001        0.27286
B          3.05613       -1.68116        0.13834
B          4.51468       -0.86117       -0.13095
B          4.26125       -2.48759       -0.75616
B          2.91730       -3.28135       -0.33362
B          1.54484       -4.14485       -0.20669
B          0.19924       -3.28340        0.58274
B          0.14586       -4.73184       -0.19437
B         -2.60619       -3.33129        0.03401
B         -1.25253       -4.14453        0.03200
B         -2.60871       -1.63860        0.48365
B         -3.86923       -2.45885       -0.23792
B         -3.91470       -0.83109        0.09786
B         -1.21128       -2.45966        0.61737
B         -1.20171        2.55147        0.64905
B          3.17923        0.01070        0.51248
B         -1.22863       -0.77151        0.87821
B          4.39959        2.51139       -0.64959
B         -5.17104        1.74233       -0.68973
B         -5.06913        0.06794       -0.57711
B         -5.17065       -1.58074       -0.81654
B         -6.22704       -0.65347       -1.45668
B         -6.24196        0.85436       -1.38360
B          1.59680       -0.80726        0.59013
B          0.09099       -1.36399       -0.11526
B          0.31622        1.77549        0.98845
B          5.52366        1.58107       -1.11674
B          5.66442       -0.01116       -1.16692
B          5.39700       -1.55275       -1.24499
B          0.22983       -0.01209        1.36231
