45
isomer_2751.log	Energy: -113467.9963804
B          2.31572        2.00916       -0.42687
B          2.08864        3.51270        0.19575
B          0.61677        4.22251        0.25710
B         -0.70583        3.36104       -0.40107
B          0.92872        0.94486       -0.89819
B         -1.87959        0.72438       -0.80381
B         -2.18547        4.01912        0.18647
B          3.75836        1.22933       -0.05477
B         -2.07917        2.39681       -0.53840
B          3.57069        2.85591        0.38666
B         -0.83231        4.71361        0.42571
B         -3.49821        3.08814        0.07028
B         -3.45828        1.50290       -0.38833
B         -4.81753        0.51270       -0.18376
B         -0.26212       -1.62942       -1.03018
B         -1.51719       -2.43747       -0.19167
B         -3.01959       -1.84956       -0.12410
B         -4.49651       -1.07232        0.24388
B         -4.19787       -2.65000        0.85201
B         -2.73637       -3.34009        0.50886
B         -1.26988       -4.03416        0.48168
B         -0.04159       -3.22586       -0.38670
B          0.18334       -4.54703        0.47485
B          2.72196       -3.13055       -0.93840
B          1.54285       -3.90915        0.07735
B          2.67442       -1.49602       -0.69323
B          4.00495       -2.17777        0.20534
B          3.93015       -0.47456       -0.25243
B          1.28332       -2.38705       -1.05934
B          0.82065        2.63378       -0.47434
B         -3.34256       -0.20108       -0.66873
B          1.05666       -0.64660       -0.94676
B         -4.79554        2.18614        0.41512
B          4.92597        2.15341        0.79525
B          5.23030        0.46755        0.24491
B          5.29028       -1.22672        0.53967
B          6.24359       -0.24719        1.27007
B          6.04178        1.25702        1.40688
B         -1.72244       -0.87436       -0.87590
B          2.83053       -3.08265        0.62289
B         -0.57115        1.69187       -0.87879
B         -5.77360        1.15406        0.94627
B         -5.84580       -0.37715        1.04438
B         -5.46666       -1.88471        1.20241
B          2.45561        0.26449       -0.63801
