45
isomer_2753.log	Energy: -113434.2417174
B         -2.49737        1.75050        0.54768
B         -2.44365        3.40337       -0.06927
B         -1.07549        4.16875       -0.28360
B          0.37613        3.39773        0.27315
B         -1.15853        0.94293        1.07124
B          1.75498        0.87729        0.71706
B          1.75255        4.13485       -0.46867
B         -3.82010        0.96788        0.21088
B          1.79870        2.54942        0.39947
B         -3.84524        2.62974       -0.04306
B          0.35590        4.72890       -0.60332
B          3.13521        3.28623       -0.37645
B          3.18893        1.71696        0.16174
B          4.62916        0.79075        0.03139
B          0.30840       -1.66940        1.31260
B          1.60616       -2.48179        0.57762
B          3.06911       -1.70577        0.36734
B          4.42103       -0.85015       -0.20641
B          4.32137       -2.51193       -0.57003
B          2.89869       -3.24084       -0.14140
B          1.46377       -3.95609       -0.26621
B         -0.02980       -3.24164        0.37247
B          0.14641       -4.45319       -0.73410
B         -2.60062       -3.18583       -0.81252
B         -1.27863       -4.02521       -0.87495
B         -2.44577       -1.72604        0.43494
B         -3.69827       -2.15367       -0.63481
B         -3.75618       -0.72708        0.12030
B         -1.78006       -3.40033        0.56071
B         -1.14022        2.65358        0.60226
B          3.26978        0.01007        0.67998
B         -1.24949       -0.66189        1.02544
B          4.44918        2.41944       -0.71353
B         -5.16516        1.86847       -0.46255
B         -5.20127        0.16921       -0.13880
B         -5.13145       -1.36856       -0.76369
B         -6.29231       -0.51501       -1.20049
B         -6.21182        0.97297       -1.16069
B          1.71181       -0.77409        1.03071
B         -1.11763       -2.32314        1.44911
B          0.36737        1.86950        0.94988
B          5.48968        1.40260       -1.16792
B          5.69037       -0.13192       -1.11207
B          5.47521       -1.68477       -1.07105
B          0.25915        0.07718        0.97959
