45
isomer_2755.log	Energy: -112668.4640930
B         -2.77413       -1.49097       -0.44902
B         -2.87653       -3.22847       -0.01814
B         -1.49377       -4.22840        0.23653
B          0.10972       -3.34487       -0.32136
B         -1.30006       -0.62616       -0.77109
B          1.78648       -0.66397       -0.85125
B          1.44650       -4.16729        0.33427
B         -4.10904       -0.57548       -0.37704
B          1.59112       -2.44054       -0.24709
B         -4.15498       -2.26750        0.07681
B         -0.01075       -4.78724        0.46444
B          2.94424       -3.30828        0.33027
B          3.09626       -1.64746       -0.22900
B          4.57654       -0.84810        0.26651
B          0.37547        1.81307       -0.90549
B          1.80809        2.48747       -0.24765
B          3.22652        1.65260       -0.20539
B          4.64604        0.77896        0.28639
B          4.55167        2.35007        0.57426
B          3.23918        3.24977        0.38587
B          1.83952        4.12733        0.36824
B          0.43283        3.41110       -0.34268
B          0.45039        4.77883        0.48847
B         -2.42116        3.49294       -0.04379
B         -0.98303        4.23991        0.20287
B         -2.53331        1.86183       -0.45300
B         -3.83895        2.73245        0.09591
B         -4.00452        1.10478       -0.37187
B         -1.08438        2.64371       -0.59824
B         -1.41221       -2.39240       -0.62570
B          3.25071       -0.03695       -0.62628
B         -1.16142        0.91141       -0.77094
B          4.37411       -2.45549        0.51315
B         -5.39164       -1.38711        0.57141
B         -5.27922        0.23764        0.34508
B         -5.17086        2.00505        0.58512
B         -6.34254        1.14402        1.17221
B         -6.46076       -0.37213        1.17221
B          1.84173        0.93362       -0.82554
B         -1.30159       -2.82932        0.71070
B          0.09356       -1.69659       -0.85888
B          5.81173       -1.70559        0.71094
B          6.05820       -0.03941        0.79182
B          5.94405        1.58094        0.81953
B          0.61021       -0.99780       -1.36355
