45
isomer_2756.log	Energy: -113489.6600636
B         -2.17787        2.17528        0.49286
B         -1.74350        3.69276       -0.18634
B         -0.27467        4.33672       -0.11117
B          0.95890        3.36259        0.64278
B         -0.99154        1.17038        1.21665
B          1.87122        0.55805        0.94115
B          2.44758        3.85718       -0.10060
B         -3.67486        1.60942        0.04790
B          2.20120        2.25477        0.71922
B         -3.05910        2.95974       -0.74099
B          1.20450        4.70235       -0.23798
B          3.62180        2.74304       -0.10622
B          3.40491        1.17888        0.32444
B          4.62446       -0.00383       -0.02872
B         -0.07293       -1.68517        1.36058
B          1.06350       -2.58706        0.43796
B          2.59270       -2.14199        0.12380
B          4.04753       -1.50070       -0.48844
B          3.53719       -3.04106       -1.04634
B          2.02364       -3.50305       -0.56410
B          0.44669       -3.99348       -0.50988
B         -0.57150       -2.96838        0.36798
B         -1.03761       -4.24167       -0.46770
B         -3.43845       -2.30551       -0.34282
B         -2.25151       -3.37118        0.07161
B         -2.88507       -0.93876        1.21170
B         -4.38821       -1.51279        0.79558
B         -3.98526        0.06197        0.47287
B         -1.67740       -2.12486        1.35093
B         -0.69055        2.83535        0.70714
B          3.18166       -0.55753        0.61998
B         -1.33594       -0.36005        1.35495
B          4.72740        1.67998       -0.60261
B         -4.02575        2.14319       -1.63464
B         -4.20904        0.53097       -1.12735
B         -4.47718       -1.15803       -0.91949
B         -5.04314       -0.35529       -2.17862
B         -4.85362        1.08815       -2.48709
B          1.53125       -1.03050        1.09912
B         -3.27735       -2.62303        1.28741
B          0.66475        1.83666        1.20093
B          5.50976        0.54992       -1.25083
B          5.38754       -0.97777       -1.40771
B          4.82643       -2.42664       -1.53683
B          0.26742        0.08102        1.22892
