45
isomer_2759.log	Energy: -112581.1362683
B          2.62868       -1.65669        0.38671
B          2.61957       -3.29191       -0.00518
B          1.21244       -4.11996       -0.25240
B         -0.24357       -3.29143        0.30544
B          1.16977       -0.76677        0.70057
B         -1.70486       -0.79644        0.78899
B         -1.63477       -4.07169       -0.38745
B          4.08741       -0.78231        0.31779
B         -1.62656       -2.39668        0.21671
B          4.02700       -2.47095       -0.15113
B         -0.21020       -4.73450       -0.53329
B         -3.06654       -3.22438       -0.39412
B         -3.09211       -1.60707        0.18406
B         -4.55224       -0.79048       -0.30509
B         -0.27009        1.75901        0.87229
B         -1.65324        2.45884        0.25270
B         -3.11002        1.65374        0.20823
B         -4.56114        0.82850       -0.29309
B         -4.40238        2.38882       -0.52694
B         -3.10228        3.27963       -0.34591
B         -1.67990        4.14243       -0.32656
B         -0.28016        3.36732        0.35480
B         -0.26271        4.82294       -0.46245
B          2.58278        3.40386        0.04445
B          1.16662        4.21998       -0.19058
B          2.60989        1.76321        0.41206
B          3.99913        2.60066       -0.11353
B          4.07813        0.90603        0.33031
B          1.17544        2.57838        0.58231
B          1.20328       -2.49001        0.54474
B         -3.18342       -0.08006        0.59211
B          1.16087        0.85276        0.71257
B         -4.37637       -2.34532       -0.56203
B          5.34627       -1.65522       -0.65057
B          5.33469       -0.02587       -0.40456
B          5.32725        1.80697       -0.62491
B          6.49714        0.86308       -1.23540
B          6.50568       -0.68958       -1.24691
B         -1.71390        0.84952        0.80119
B          0.21082       -0.79827        2.37617
B         -0.25113       -1.69096        0.84672
B         -5.88909       -1.64102       -0.76936
B         -6.09362        0.07156       -0.82146
B         -5.90536        1.80259       -0.81444
B         -0.07723       -1.00226       -0.41357
