45
isomer_0276.log	Energy: -113455.9971770
B         -2.87166        0.94224        0.34733
B         -2.84890        2.63098       -0.63853
B         -1.56615        3.46990       -0.77521
B         -0.12606        3.04112        0.04870
B         -1.32926        0.36014        0.60613
B          1.64144        0.81933        0.75761
B          1.23235        3.95019       -0.59053
B         -4.43544        0.92954        0.81586
B          1.46264        2.42264        0.16934
B         -4.18117        2.03683       -0.30502
B         -0.20869        4.23634       -0.97931
B          2.73750        3.36809       -0.30491
B          2.97843        1.88697        0.44799
B          4.53541        1.17500        0.25851
B          0.48752       -2.24153        1.19165
B          1.92999       -2.46680        0.28569
B          3.24018       -1.50785        0.31133
B          4.53758       -0.48099       -0.06718
B          4.69804       -2.08168       -0.56825
B          3.31203       -2.94346       -0.50011
B          1.93805       -3.60081       -1.02114
B          0.49971       -3.34464       -0.04472
B          0.54057       -3.89285       -1.53401
B         -2.21848       -2.68661       -0.76686
B         -0.88887       -3.42123       -1.16098
B         -2.23303       -1.18730        0.46929
B         -3.56519       -2.05686       -0.39988
B         -3.84505       -0.62623        0.36426
B         -0.97216       -2.40133        0.17460
B         -1.47474        1.87940       -0.07620
B          3.21361        0.16604        0.76848
B         -0.87648       -1.15890        1.40116
B          4.22078        2.76058       -0.41172
B         -5.72503        1.43090       -0.14033
B         -5.53093       -0.19093        0.30048
B         -5.06230       -1.63851       -0.45591
B         -6.39397       -0.96317       -0.85575
B         -6.75812        0.45396       -0.65907
B          1.83665       -0.88718        1.25570
B          0.61408       -1.15310        2.35866
B          0.06280        1.48257        0.62122
B          5.47102        1.96852       -0.76421
B          5.84415        0.46949       -0.71934
B          5.82642       -1.10087       -0.77793
B          0.25073        0.15205        1.56313
