45
isomer_2762.log	Energy: -113280.0154245
B          2.32355        2.05489       -0.72978
B          1.94867        3.66135        0.04411
B          0.54169        4.29647       -0.10322
B         -0.73875        3.35882       -0.72523
B          1.05781        1.15978       -1.41590
B         -1.80089        0.69349       -1.05149
B         -2.23668        3.99548       -0.20457
B          3.59738        1.39877       -0.01232
B         -2.08948        2.33654       -0.89682
B          3.16492        2.92053        0.47891
B         -0.92864        4.77954       -0.06851
B         -3.46316        2.97163       -0.12248
B         -3.34817        1.36301       -0.45899
B         -4.49870        0.26440        0.15214
B         -0.12980       -1.49699       -1.51561
B         -0.74786       -1.98980        0.21764
B         -2.41691       -1.84951        0.19136
B         -3.91453       -1.18238        0.76003
B         -3.32819       -2.63294        1.46284
B         -1.93182       -3.22910        0.86591
B         -0.83010       -3.93862        0.07687
B          0.50531       -2.92153       -0.43208
B          0.33034       -4.64800       -0.75038
B          2.30597       -2.83316       -0.23929
B          1.63076       -4.23985       -0.05774
B          2.35597       -1.07425       -0.57813
B          3.54909       -1.83610        0.32238
B          3.71075       -0.26849       -0.03244
B          1.45095       -2.12506       -1.78934
B          0.80494        2.63482       -0.77864
B         -3.07904       -0.37779       -0.50111
B          1.18327       -0.42526       -1.53506
B         -4.55272        1.98702        0.54884
B          4.41253        2.17687        1.29671
B          4.79281        0.62051        0.80885
B          4.63601       -1.07932        1.18195
B          5.34329       -0.12144        2.17952
B          5.29085        1.35722        2.22104
B         -1.50976       -0.89381       -1.00187
B          1.49604       -3.72134       -1.67794
B         -0.53128        1.69952       -1.19318
B         -5.29009        0.94100        1.38081
B         -5.19400       -0.55824        1.69956
B         -4.60678       -1.97630        1.94519
B          0.73445       -1.25237        0.03746
