45
isomer_2763.log	Energy: -113510.9143409
B         -2.56193       -1.73944       -0.90663
B         -2.34102       -3.03959        0.29937
B         -0.92713       -3.86234        0.38251
B          0.40472       -3.28735       -0.50262
B         -1.03001       -0.79322       -0.96549
B          1.80947       -0.75517       -0.80120
B          1.84723       -4.00847        0.20083
B         -3.98184       -0.91912       -0.62824
B          1.87391       -2.42705       -0.55508
B         -3.84503       -2.63841        0.24937
B          0.43916       -4.50663        0.54580
B          3.22774       -3.22440        0.05908
B          3.33060       -1.65787       -0.44691
B          4.74318       -0.78006       -0.15993
B          0.36554        1.67560       -0.86266
B          1.73753        2.45701       -0.21671
B          3.20347        1.75626       -0.19158
B          4.56942        0.83417        0.23283
B          4.46807        2.47474        0.72308
B          3.05711        3.26645        0.41229
B          1.63815        4.09101        0.40062
B          0.32566        3.34643       -0.40566
B          0.22762        4.69328        0.41864
B         -2.52369        3.32782       -0.18990
B         -1.18331        4.10815        0.02918
B         -2.53367        1.62320       -0.47839
B         -3.89821        2.47992       -0.05444
B         -3.96140        0.82942       -0.55259
B         -1.14193        2.54488       -0.70308
B         -1.05895       -2.45546       -0.68058
B          3.32882        0.06319       -0.64392
B         -1.00934        0.80140       -0.72187
B          4.60341       -2.40780        0.43699
B         -4.84837       -1.63009        0.84272
B         -5.22045       -0.04560        0.17630
B         -5.14870        1.66876        0.48362
B         -6.13927        0.78735        1.24539
B         -5.90847       -0.65044        1.51264
B          1.76550        0.83821       -0.81902
B         -2.95508       -1.34493        0.82912
B          0.41677       -1.59830       -0.96357
B          5.66845       -1.47236        0.96601
B          5.89665        0.05844        0.99916
B          5.67897        1.59334        1.07775
B         -2.40936       -0.07494       -0.07319
