45
isomer_2766.log	Energy: -113574.3598893
B          2.65769       -1.63704        0.56756
B          2.74200       -3.34102        0.08310
B          1.29537       -4.08742       -0.05894
B         -0.11041       -3.05543        0.10899
B          2.53288        0.04572        0.57573
B         -1.77594       -0.80345        0.53412
B         -1.57818       -4.18448       -0.28678
B          3.98855       -0.77282        0.20740
B         -1.66396       -2.48609        0.01816
B          4.07332       -2.50842       -0.05470
B         -0.14345       -4.65046       -0.24798
B         -2.98696       -3.42996       -0.34493
B         -3.15415       -1.84213        0.19598
B         -4.60678       -1.00338        0.07839
B         -0.38415        1.78010        1.05198
B         -1.88843        2.49922        0.53350
B         -3.25920        1.66690        0.35694
B         -4.56803        0.69619       -0.17005
B         -4.57814        2.37242       -0.56866
B         -3.23343        3.23228       -0.17729
B         -1.85681        4.06910       -0.27169
B         -0.41398        3.37949        0.43900
B         -0.45850        4.64169       -0.53139
B          2.39111        3.35432       -0.22091
B          0.99650        4.09680       -0.30259
B          2.46307        1.76800        0.34106
B          3.78437        2.57043       -0.39566
B          3.93524        0.94687        0.09052
B          1.07762        2.60535        0.62093
B          1.07694       -0.94230        0.89452
B         -3.29757       -0.06266        0.62067
B          1.11570        0.88833        0.80710
B         -4.42206       -2.63088       -0.59399
B          5.33600       -1.60445       -0.45920
B          5.39665        0.13980       -0.17465
B          5.11794        1.76451       -0.78365
B          6.29617        0.83361       -1.29299
B          6.40415       -0.66862       -1.11033
B         -1.86375        0.84094        1.06893
B          1.34370       -2.56172        0.72592
B         -0.34683       -0.01055        1.00304
B         -5.56820       -1.69143       -0.98354
B         -5.81221       -0.16347       -0.97024
B         -5.69405        1.41634       -1.00740
B         -0.35977       -1.47023        0.08402
