45
isomer_2768.log	Energy: -112346.1258052
B          2.63987       -1.62187        0.37396
B          2.63979       -3.25359       -0.03236
B          1.23719       -4.08767       -0.28499
B         -0.22287       -3.27265        0.28210
B          1.17621       -0.74333        0.69763
B         -1.69806       -0.79063        0.78963
B         -1.61044       -4.05490       -0.41580
B          4.09335       -0.73838        0.31082
B         -1.61119       -2.38528        0.20313
B          4.04218       -2.42313       -0.17292
B         -0.18222       -4.70803       -0.56940
B         -3.04716       -3.21598       -0.41306
B         -3.08139       -1.60402        0.17943
B         -4.54695       -0.79172       -0.30053
B         -0.27816        1.77235        0.89360
B         -1.66625        2.46950        0.28207
B         -3.11836        1.65629        0.23244
B         -4.56531        0.82700       -0.27421
B         -4.41602        2.39023       -0.49447
B         -3.12090        3.28702       -0.30732
B         -1.70357        4.15794       -0.28226
B         -0.29837        3.38507        0.39035
B         -0.29058        4.84793       -0.41402
B          2.56387        3.44115        0.07650
B          1.14263        4.25099       -0.14941
B          2.60110        1.79750        0.42956
B          3.98468        2.64770       -0.09047
B          4.07421        0.94971        0.33827
B          1.16213        2.60271        0.60893
B          1.21960       -2.46490        0.52653
B         -3.18106       -0.08123        0.60108
B          1.15785        0.87595        0.72396
B         -4.36234       -2.34317       -0.57144
B          5.35596       -1.59530       -0.66691
B          5.33519        0.03172       -0.40649
B          5.31671        1.86636       -0.61062
B          6.49126        0.93477       -1.23100
B          6.50886       -0.61765       -1.25624
B         -1.71672        0.85507        0.81639
B          0.86947       -2.29881        1.56010
B         -0.23905       -1.67710        0.83751
B         -5.87944       -1.64596       -0.77051
B         -6.09408        0.06578       -0.80720
B         -5.91594        1.79776       -0.78513
B         -0.76569       -0.49523        0.15274
