45
isomer_0277.log	Energy: -112488.0459508
B         -2.54469        1.74188        0.39650
B         -2.51565        3.38195        0.02645
B         -1.09818        4.19843       -0.19924
B          0.34489        3.34741        0.35837
B         -1.09750        0.83267        0.70937
B          1.77652        0.83108        0.81959
B          1.74932        4.12215       -0.31371
B         -4.01183        0.88381        0.30510
B          1.71916        2.43948        0.26806
B         -3.93037        2.57777       -0.14087
B          0.33284        4.80170       -0.46134
B          3.17224        3.26007       -0.32096
B          3.17665        1.63508        0.23584
B          4.63191        0.80978       -0.25323
B          0.31475       -1.71009        0.85823
B          1.69523       -2.41610        0.23972
B          3.16058       -1.62577        0.21681
B          4.62394       -0.80921       -0.26268
B          4.45080       -2.36456       -0.51842
B          3.14019       -3.24403       -0.35893
B          1.70884       -4.09207       -0.36166
B          0.31207       -3.31143        0.31949
B          0.28574       -4.75587       -0.51713
B         -2.54865       -3.31390       -0.01264
B         -1.13928       -4.14162       -0.24793
B         -2.56154       -1.67806        0.37654
B         -3.95536       -2.49391       -0.17048
B         -4.02015       -0.80456        0.29524
B         -1.13695       -2.51038        0.54662
B         -1.11197        2.55808        0.57621
B          3.24903        0.10194        0.62423
B         -1.10548       -0.78687        0.69991
B          4.47412        2.36964       -0.49078
B         -5.25420        1.78256       -0.66093
B         -5.26137        0.15007       -0.43652
B         -5.27126       -1.67968       -0.68114
B         -6.42664       -0.71561       -1.28774
B         -6.41899        0.83707       -1.27867
B          1.76841       -0.81489        0.80998
B         -2.55906       -1.02235        1.65237
B          0.33175        1.73994        0.87837
B          5.98099        1.65235       -0.69617
B          6.16815       -0.06143       -0.76951
B          5.96191       -1.79034       -0.78690
B         -0.56094        0.08784        0.01459
