45
isomer_2770.log	Energy: -113454.5065722
B          2.38315        1.87498       -0.44753
B          2.33446        3.53893       -0.01614
B          0.92667        4.24033        0.21447
B         -0.47133        3.41639       -0.33876
B          1.12780        0.99119       -1.00576
B         -1.83696        0.90944       -0.93403
B         -1.86361        4.07282        0.49139
B          3.73621        1.08224       -0.12477
B         -1.89627        2.53276       -0.37454
B          3.67632        2.74361        0.12054
B         -0.48530        4.73480        0.57431
B         -3.19883        3.17247        0.47365
B         -3.20999        1.62637       -0.10803
B         -4.55176        0.64592        0.23773
B         -0.29427       -1.59602       -1.38815
B         -1.58482       -2.46067       -0.62616
B         -3.04270       -1.76988       -0.39111
B         -4.50035       -1.01406       -0.01840
B         -4.16175       -2.61152        0.58205
B         -2.75588       -3.34304        0.11873
B         -1.27410       -3.96239        0.10029
B         -0.05600       -3.22223       -0.82640
B          0.21939       -4.27941        0.49095
B          2.81918       -3.33984        0.91626
B          1.66834       -4.27709        1.05938
B          2.50246       -1.80268       -0.42334
B          3.83581       -2.17684        0.59794
B          3.70829       -0.69403       -0.02452
B          1.59208       -3.28632       -0.19287
B          1.01794        2.71232       -0.73113
B         -3.28789       -0.03171       -0.67509
B          1.33177       -0.60585       -1.02966
B         -4.49793        2.26206        0.88753
B          5.05841        1.95218        0.48486
B          5.07058        0.28205        0.17289
B          5.17797       -1.31868        0.76458
B          6.26734       -0.34985        1.17447
B          6.20761        1.12790        1.04575
B         -1.68925       -0.77779       -0.97786
B          1.21668       -2.23145       -1.38676
B         -0.44962        1.91012       -1.09924
B         -5.55169        1.26435        1.31707
B         -5.63939       -0.28486        1.20731
B         -5.28940       -1.78506        1.15496
B         -0.28936        0.12805       -1.04686
