45
isomer_2772.log	Energy: -112451.7747376
B         -2.55203        1.77183        0.43895
B         -2.52568        3.41051        0.06260
B         -1.11002        4.22531       -0.17991
B          0.33794        3.37548        0.36673
B         -1.10237        0.86291        0.74103
B          1.77259        0.86001        0.82323
B          1.73618        4.14690       -0.32185
B         -4.02047        0.91430        0.36502
B          1.71076        2.46641        0.26637
B         -3.94241        2.60656       -0.08795
B          0.31872        4.82676       -0.45816
B          3.15849        3.28395       -0.33981
B          3.16741        1.66102        0.22290
B          4.61737        0.83306       -0.27729
B          0.30984       -1.68013        0.88548
B          1.68383       -2.38924        0.25613
B          3.14933       -1.59987        0.21602
B          4.60839       -0.78595       -0.28071
B          4.43189       -2.34212       -0.52902
B          3.12241       -3.22022       -0.35353
B          1.69063       -4.06741       -0.33918
B          0.30101       -3.28344        0.35269
B          0.26571       -4.73092       -0.47832
B         -2.56282       -3.28542        0.04848
B         -1.15627       -4.11484       -0.19750
B         -2.57100       -1.64815        0.43174
B         -3.97054       -2.46518       -0.09865
B         -4.02984       -0.77409        0.36146
B         -1.14527       -2.48069        0.59098
B         -1.11716        2.58783        0.60168
B          3.24271        0.12927        0.61621
B         -1.11135       -0.75665        0.73762
B          4.45815        2.39213       -0.51904
B         -5.27170        1.81023       -0.59215
B         -5.27760        0.17858       -0.36167
B         -5.29090       -1.65204       -0.59945
B         -6.45160       -0.68952       -1.19830
B         -6.44299        0.86318       -1.19502
B          1.76346       -0.78599        0.81976
B         -1.87544       -1.00416       -0.94366
B          0.32898        1.76994        0.89275
B          5.96253        1.67319       -0.73647
B          6.14801       -0.04096       -0.80532
B          5.94064       -1.76980       -0.81433
B         -0.69953       -1.08256        1.60946
