45
isomer_2774.log	Energy: -113523.4049501
B          2.43839       -1.83295        0.64242
B          2.20358       -3.06504       -0.49824
B          0.83185       -3.77942       -0.64923
B         -0.33609       -3.36085        0.62864
B          1.04473       -0.84270        0.80530
B         -1.78772       -0.76393        0.73774
B         -1.97407       -4.06090       -0.18347
B          3.93790       -0.95451        0.31563
B         -1.81343       -2.48603        0.36895
B          3.68604       -2.40117       -0.45176
B         -0.61349       -4.32757       -0.70289
B         -3.26936       -3.19772       -0.08844
B         -3.23144       -1.58962        0.33896
B         -4.62276       -0.64709        0.00135
B         -0.28552        1.66383        0.74661
B         -1.65539        2.49688        0.23609
B         -3.14812        1.80222        0.17784
B         -4.64074        1.01941        0.18709
B         -4.40364        2.64984       -0.57243
B         -3.00777        3.37980       -0.32278
B         -1.56502        4.14167       -0.43648
B         -0.21846        3.34784        0.25359
B         -0.13058        4.69519       -0.56347
B          2.64281        3.28028        0.06325
B          1.25864        4.08700       -0.19961
B          2.63318        1.67947        0.60813
B          4.01139        2.46192       -0.00662
B          4.03956        0.79258        0.48174
B          1.22350        2.49605        0.54547
B          0.72623       -2.08112       -0.42986
B         -3.25877        0.13845        0.66459
B          1.14140        0.81646        0.88338
B         -4.60201       -2.28528       -0.46724
B          5.05421       -1.70282       -0.75573
B          5.33081       -0.08560       -0.17128
B          5.29413        1.62717       -0.43031
B          6.32965        0.70613       -1.15568
B          6.20581       -0.77654       -1.33089
B         -1.66248        0.84131        0.57003
B          2.58993       -0.03206        0.84853
B         -0.39308       -1.62843        0.87376
B         -5.73816       -1.36856       -0.86511
B         -5.85728        0.20907       -0.85902
B         -5.54292        1.70169       -0.96219
B          1.13454       -2.76435        1.12368
