45
isomer_2775.log	Energy: -113165.7414974
B         -2.56211        1.75141        0.39422
B         -2.47904        3.48167       -0.04109
B         -1.07041        4.19833       -0.22071
B          0.35626        3.39991        0.36779
B         -1.14408        0.96229        0.65014
B          1.82828        0.87659        0.88069
B          1.78381        4.12981       -0.29489
B         -3.97056        0.93423        0.35897
B          1.74235        2.48000        0.31729
B         -3.86940        2.58429       -0.17757
B          0.38313        4.75041       -0.46629
B          3.13835        3.25533       -0.28779
B          3.19445        1.69162        0.24269
B          4.63363        0.82893       -0.21968
B          0.70490       -1.65873        0.99948
B          1.89826       -2.46384        0.27107
B          3.27213       -1.65483        0.24315
B          4.63073       -0.83321       -0.20840
B          4.60179       -2.50339       -0.57166
B          3.12982       -3.27929       -0.33791
B          1.67558       -4.07608       -0.33432
B          0.27495       -3.39691        0.26591
B          0.19973       -4.72113       -0.43439
B         -2.70692       -3.43232        0.01876
B         -1.30156       -4.20307       -0.17721
B         -2.70687       -1.67158        0.31421
B         -4.11942       -2.50048       -0.10910
B         -4.06650       -0.80997        0.36777
B         -1.43310       -2.68483        0.50044
B         -1.17854        2.63605        0.52706
B          3.32692        0.05365        0.62831
B         -1.31155       -0.59274        0.48565
B          4.54236        2.50193       -0.52689
B         -5.17375        1.81108       -0.64501
B         -5.24504        0.13161       -0.36248
B         -5.34122       -1.61312       -0.56848
B         -6.42399       -0.59780       -1.16125
B         -6.36134        0.90232       -1.21255
B          1.90992       -0.80497        0.91868
B         -2.65998       -0.05246        1.04668
B          0.35801        1.76555        0.88426
B          5.83965        1.61682       -0.74759
B          6.01185        0.02343       -0.78981
B          5.83009       -1.61105       -0.80627
B         -0.14156       -1.60542        0.01816
