45
isomer_2776.log	Energy: -113523.3371489
B          2.44021       -1.83057        0.64301
B          2.20471       -3.06334       -0.49556
B          0.83381       -3.77905       -0.64749
B         -0.33337       -3.36136        0.63287
B          1.04590       -0.84359        0.80956
B         -1.78997       -0.76536        0.74254
B         -1.97125       -4.06170       -0.18034
B          3.93712       -0.95072        0.31206
B         -1.81214       -2.48745        0.37518
B          3.68731       -2.39949       -0.45112
B         -0.61032       -4.32747       -0.69945
B         -3.26627       -3.19998       -0.08729
B         -3.23207       -1.59214        0.34237
B         -4.62198       -0.64998       -0.00352
B         -0.28697        1.66439        0.75092
B         -1.65927        2.49743        0.24838
B         -3.15184        1.80265        0.20228
B         -4.64205        1.01642        0.17503
B         -4.40135        2.64628       -0.57176
B         -3.01129        3.37962       -0.30804
B         -1.57178        4.14336       -0.42529
B         -0.22191        3.34814        0.25403
B         -0.13711        4.69467       -0.56301
B          2.63879        3.28029        0.05523
B          1.25338        4.08634       -0.20485
B          2.63085        1.68096        0.60271
B          4.00856        2.46306       -0.01443
B          4.03882        0.79554        0.47668
B          1.22094        2.49650        0.54241
B          1.13729       -2.76269        1.12688
B         -3.26212        0.13582        0.66878
B          1.14051        0.81672        0.88280
B         -4.59655       -2.28817       -0.47425
B          5.05486       -1.70086       -0.75673
B          5.33187       -0.08342       -0.17231
B          5.29353        1.62901       -0.43410
B          6.32923        0.70756       -1.15880
B          6.20590       -0.77506       -1.33252
B         -1.66445        0.84107        0.58259
B          0.72513       -2.08237       -0.42648
B         -0.39309       -1.62732        0.87734
B         -5.72755       -1.37129       -0.88389
B         -5.84734        0.20633       -0.87953
B         -5.53584        1.69977       -0.97915
B          2.58919       -0.02858        0.84628
