45
isomer_2777.log	Energy: -113397.8674351
B          2.53978       -1.68225        0.39281
B          2.40394       -3.14547       -0.47954
B          0.94606       -3.89253       -0.69324
B         -0.36593       -3.33386        0.22387
B          1.18667       -0.89844        0.99760
B         -1.75378       -0.77673        1.15451
B         -1.85073       -3.92762       -0.53917
B          4.01920       -0.96737        0.25657
B         -1.73812       -2.45005        0.49272
B          3.81663       -2.45810       -0.39008
B         -0.43761       -4.39794       -0.99153
B         -3.15652       -3.19618       -0.14224
B         -3.07263       -1.54450        0.28633
B         -4.46173       -0.67792        0.10666
B         -0.13633        1.75043        0.73585
B         -1.48720        2.54450        0.13160
B         -2.95619        1.75782        0.17476
B         -4.41432        0.97696        0.21760
B         -4.22988        2.57169       -0.63027
B         -2.81175        3.36537       -0.44972
B         -1.41022        4.08276       -0.61550
B          0.00788        3.27392        0.08457
B          0.09013        4.59312       -0.79943
B          2.78436        3.11862       -0.07228
B          1.44103        3.99709       -0.43560
B          2.74404        1.53141        0.60531
B          4.11639        2.27485       -0.02322
B          4.14294        0.70653        0.42852
B          1.38612        2.40589        0.43434
B          1.13988       -2.51618        0.34516
B         -3.27689        0.16306        1.19673
B          1.31238        0.71660        0.92782
B         -4.52194       -2.36363       -0.37936
B          5.29940       -1.78344       -0.53871
B          5.47023       -0.20963        0.08442
B          5.52174        1.44971       -0.27514
B          6.60333        0.55639       -0.86520
B          6.47955       -0.92816       -1.00481
B         -1.59354        0.84189        0.70599
B         -0.17185       -0.02637        1.12013
B         -0.30946       -1.87376        1.10816
B         -5.63219       -1.40274       -0.72749
B         -5.67471        0.14332       -0.81027
B         -5.35327        1.63635       -0.95510
B         -2.63483       -0.00545       -0.39416
