45
isomer_2778.log	Energy: -113420.5689073
B          2.67387       -1.60168        0.71266
B          2.70393       -3.20536        0.06400
B          1.35383       -4.10840       -0.04406
B         -0.12437       -3.43286        0.57404
B          1.21383       -0.79043        0.99970
B         -1.48314       -0.82300        0.13913
B         -1.44845       -4.18379       -0.40513
B          3.97227       -0.69858        0.25389
B         -1.52892       -2.59699        0.16941
B          3.96170       -2.28728       -0.11409
B          0.01260       -4.69389       -0.42990
B         -2.82265       -3.37263       -0.50584
B         -2.93638       -1.73655       -0.06994
B         -4.44963       -1.01491       -0.06584
B         -0.32775        1.68337        0.75399
B         -1.84830        2.44071        0.57461
B         -3.19481        1.54944        0.52546
B         -4.54340        0.67833        0.03607
B         -4.57352        2.38284       -0.33051
B         -3.21930        3.18592        0.02827
B         -1.88699        4.08128       -0.12977
B         -0.41227        3.28911        0.23156
B         -0.49611        4.73128       -0.39868
B          2.38408        3.35669       -0.29554
B          0.94253        4.14388       -0.33944
B          2.51002        1.74546        0.26686
B          3.80498        2.59275       -0.38060
B          3.88254        0.97690       -0.01944
B          1.11181        2.55504        0.37024
B          1.30789       -2.52855        0.65386
B         -3.14898       -0.11996        0.59882
B          1.19309        0.79642        0.69306
B         -4.20504       -2.53547       -0.89237
B          5.35577       -1.45048       -0.45177
B          5.31820        0.20399       -0.10335
B          5.18613        1.80835       -0.75321
B          6.30748        0.88997       -1.23903
B          6.44828       -0.59168       -1.04078
B         -1.68207        0.68797        1.09439
B         -0.27820       -0.11639        1.60798
B         -0.22370       -1.77152        0.92496
B         -5.34247       -1.61650       -1.24828
B         -5.67171       -0.08986       -1.02571
B         -5.62106        1.44978       -0.87757
B         -0.17562        0.13731       -0.11210
