45
isomer_2779.log	Energy: -112534.6157823
B          2.48133        1.76429       -0.49067
B          2.45432        3.40030       -0.10293
B          1.03875        4.21053        0.15494
B         -0.41127        3.36151       -0.38748
B          1.03142        0.85450       -0.78893
B         -1.84403        0.84630       -0.85127
B         -1.80624        4.12535        0.31602
B          3.95195        0.90928       -0.43277
B         -1.78154        2.44897       -0.28386
B          3.87366        2.59824        0.03232
B         -0.38922        4.80715        0.44718
B         -3.22666        3.25939        0.33791
B         -3.23625        1.64033       -0.23583
B         -4.68105        0.80602        0.26869
B         -0.37668       -1.69037       -0.94102
B         -1.74486       -2.40656       -0.30706
B         -3.21162       -1.62049       -0.25142
B         -4.66882       -0.81296        0.26095
B         -4.48750       -2.37043        0.49738
B         -3.17752       -3.24463        0.30682
B         -1.74418       -4.08878        0.27677
B         -0.36096       -3.29726       -0.41931
B         -0.31701       -4.75031        0.40150
B          2.50490       -3.29548       -0.13493
B          1.10176       -4.12943        0.11508
B          2.50716       -1.65561       -0.50701
B          3.91198       -2.47339        0.00808
B          3.96471       -0.77907       -0.44084
B          1.08204       -2.48996       -0.66209
B          1.04374        2.57845       -0.63787
B         -3.31122        0.11116       -0.63910
B          1.04366       -0.76502       -0.79667
B         -4.52327        2.36372        0.52000
B          5.20799        1.80120        0.52185
B          5.21555        0.17118        0.28016
B          5.23415       -1.66100        0.50530
B          6.39705       -0.70022        1.10268
B          6.38532        0.85244        1.11010
B         -1.83159       -0.79966       -0.85913
B          4.04061       -0.48134        0.83232
B         -0.40274        1.75962       -0.92454
B         -6.02468        1.64024        0.74291
B         -6.20625       -0.07472        0.80129
B         -5.99537       -1.80316        0.79703
B          1.28851       -0.92033        0.45746
