45
isomer_0278.log	Energy: -113459.2095034
B         -2.46130        1.76825        0.43502
B         -2.27937        3.39032       -0.24757
B         -0.89317        4.08143       -0.39119
B          0.54528        3.36123        0.47622
B         -1.06329        0.90603        0.72550
B          1.87041        0.77752        0.82370
B          1.99487        3.96851       -0.26674
B         -3.91891        1.10620        0.33500
B          1.94115        2.42174        0.51459
B         -3.69216        2.58013       -0.41172
B          0.58678        4.52091       -0.60831
B          3.36443        3.14146       -0.12876
B          3.34083        1.54014        0.37731
B          4.75723        0.57509        0.21200
B          0.16480       -1.71788        1.18897
B          1.53956       -2.46252        0.29548
B          3.04297       -1.80895        0.27436
B          4.40945       -1.00384       -0.26129
B          4.18465       -2.57918       -0.84862
B          2.70259       -3.26798       -0.56103
B          1.23037       -3.73794       -0.75522
B         -0.03698       -3.17945        0.40631
B         -0.32979       -3.93616       -0.99556
B         -2.78086       -3.10251        0.43228
B         -1.62031       -3.88876       -0.20401
B         -2.67002       -1.42079        0.63031
B         -4.09921       -2.18095        0.09376
B         -4.05146       -0.56306        0.43977
B         -1.34466       -2.19761       -0.40959
B         -0.99913        2.55752        0.33543
B          3.35777       -0.18793        0.78283
B         -1.18225       -0.75305        0.61734
B          4.64725        2.25207       -0.41212
B         -5.09012        1.95745       -0.74285
B         -5.28519        0.33083       -0.27552
B         -5.27921       -1.37542       -0.52606
B         -6.34154       -0.40037       -1.22974
B         -6.29702        1.08821       -1.27022
B          1.73960       -0.92563        1.01656
B         -1.37451       -2.49224        1.35752
B          0.42778        1.72807        0.95191
B          5.68506        1.23249       -0.91944
B          5.78738       -0.28416       -1.01678
B          5.42954       -1.81674       -1.19513
B          0.34070       -0.00248        0.95532
