45
isomer_2780.log	Energy: -111843.8617926
B          2.59558        1.71204       -0.50747
B          2.58723        3.35009       -0.12760
B          1.18081        4.17866        0.12192
B         -0.27771        3.34469       -0.42106
B          1.13567        0.81848       -0.80602
B         -1.73946        0.84484       -0.87743
B         -1.66550        4.12876        0.27438
B          4.05553        0.83954       -0.44085
B         -1.65928        2.44934       -0.31745
B          3.99630        2.53153        0.01596
B         -0.24072        4.79394        0.40679
B         -3.09639        3.28020        0.29586
B         -3.12385        1.65864       -0.27020
B         -4.58024        0.84434        0.23369
B         -0.30275       -1.70983       -0.95048
B         -1.68149       -2.40633       -0.31747
B         -3.13876       -1.60227       -0.27022
B         -4.58764       -0.77468        0.23369
B         -4.42599       -2.33309        0.47808
B         -3.12613       -3.22402        0.29584
B         -1.70306       -4.08562        0.27435
B         -0.30817       -3.31427       -0.42109
B         -0.28442       -4.76381        0.40675
B          2.55661       -3.34588       -0.12763
B          1.14267       -4.16155        0.12189
B          2.57994       -1.70797       -0.50749
B          3.97311       -2.54024        0.01594
B          4.04781       -0.84886       -0.44085
B          1.14528       -2.52570       -0.66313
B          1.16845        2.54286       -0.66311
B         -3.21612        0.12858       -0.66643
B          1.12827       -0.80110       -0.80602
B         -4.40434        2.40120        0.47810
B          5.31932        1.72072        0.51350
B          5.30784        0.08959        0.27959
B          5.30349       -1.74158        0.51349
B          6.47610       -0.79212        1.10998
B          6.48320        0.76058        1.10999
B         -1.74698       -0.80116       -0.87744
B          1.09819        0.05372        2.30235
B         -0.28697        1.74026       -0.95047
B         -5.91510        1.69706        0.69967
B         -6.11767       -0.01528        0.76563
B         -5.92778       -1.74614        0.77024
B          0.27511       -0.66814       -0.28777
