45
isomer_2781.log	Energy: -113665.0239377
B         -2.57291        1.74374        0.53967
B         -2.51621        3.36075        0.00856
B         -1.11761        4.12137       -0.07148
B          0.32888        3.40145        0.67834
B         -1.14440        0.85726        0.84989
B          1.79758        0.88321        0.82961
B          1.74710        4.11015       -0.18438
B         -3.98884        0.89763        0.19106
B          1.81684        2.56329        0.47226
B         -3.86011        2.52945       -0.27879
B          0.30466        4.62081       -0.35678
B          3.12227        3.31444       -0.22473
B          3.20456        1.69064        0.36263
B          4.54422        0.85302       -0.25600
B          0.34049       -1.74620        1.09287
B          1.79168       -2.56837        0.45692
B          3.18657       -1.70744        0.34682
B          4.53500       -0.87859       -0.26477
B          4.39067       -2.50170       -0.75292
B          3.09028       -3.32830       -0.24129
B          1.70782       -4.11592       -0.19646
B          0.30465       -3.40451        0.67749
B          0.26032       -4.62217       -0.35820
B         -2.54922       -3.34798        0.02491
B         -1.15781       -4.12013       -0.06116
B         -2.59538       -1.72493        0.56120
B         -3.88691       -2.50784       -0.25608
B         -4.00031       -0.87055        0.20589
B         -1.15299       -2.53601        0.55588
B         -1.12886        2.53517        0.54878
B          3.28490       -0.00974        0.56934
B         -1.13978       -0.87146        0.83831
B          4.41772        2.47993       -0.73505
B         -5.11359        1.71172       -0.84202
B         -5.25012        0.01617       -0.48977
B         -5.13665       -1.68487       -0.81935
B         -6.13819       -0.74389       -1.58592
B         -6.12682        0.77209       -1.59760
B          1.78849       -0.88655        0.82587
B         -2.62524        0.00776        0.75539
B          0.35051        1.74456        1.09493
B          5.46205        1.55082       -1.34542
B          5.61865       -0.01532       -1.34364
B          5.44489       -1.57855       -1.35882
B          0.36116        0.00562        1.13397
