45
isomer_2782.log	Energy: -113120.7556253
B          2.09660       -2.02324        0.66351
B          2.01695       -3.77515       -0.17054
B          0.70327       -4.59888       -0.05026
B         -0.60471       -3.70235        0.60033
B          0.77232       -0.85785        1.16975
B         -1.31507       -0.77341        0.83012
B         -2.03958       -4.21966       -0.08476
B          3.22295       -1.18565       -0.15420
B         -1.79336       -2.48420        0.62891
B          3.09323       -2.79135       -0.53620
B         -0.79094       -5.05958       -0.20904
B         -3.17655       -3.09796       -0.14011
B         -2.95338       -1.49633        0.14265
B         -4.15873       -0.46985       -0.36262
B          0.00982        2.05939        1.25177
B         -1.24741        2.69269        0.48457
B         -2.58179        1.93006        0.00304
B         -3.96839        1.13090       -0.50132
B         -3.77077        2.77089       -0.95162
B         -2.49248        3.52251       -0.33883
B         -1.19089        4.44177       -0.15936
B          0.10065        3.71031        0.64799
B          0.15964        5.09934       -0.15597
B          2.72334        3.43104       -0.01041
B          1.55614        4.44084        0.07982
B          2.44532        1.68072        0.71173
B          3.61278        2.27899       -0.42010
B          3.38677        0.67161       -0.13484
B          1.63650        3.17601        1.22755
B          0.99910       -3.31964        1.06056
B         -2.71643        0.22269        0.31302
B          1.04184        0.67703        1.20889
B         -4.30881       -2.12929       -0.74584
B          4.25816       -1.97745       -1.29261
B          4.33422       -0.34403       -0.98701
B          4.58224        1.29461       -1.24644
B          5.39395        0.31589       -2.09889
B          5.25804       -1.14611       -2.11901
B         -1.15839        0.94786        0.78727
B          1.50449        1.85391        2.06494
B         -0.38533       -2.08665        1.29193
B         -5.24860       -1.11001       -1.36017
B         -5.26069        0.43117       -1.45813
B         -4.92189        1.93674       -1.50643
B          1.17588       -2.06836        2.02637
