45
isomer_2784.log	Energy: -113401.1200507
B          2.57569       -1.63267        0.31658
B          2.44943       -3.26518       -0.22499
B          1.06915       -4.08045       -0.30456
B         -0.34811       -3.29340        0.34660
B          1.13047       -0.73504        0.65191
B         -1.73218       -0.77032        1.06050
B         -1.74069       -4.10050       -0.23386
B          4.03042       -0.95571        0.30800
B         -1.77996       -2.47971        0.60238
B          3.85758       -2.43806       -0.44659
B         -0.35163       -4.69189       -0.43583
B         -3.09724       -3.20464       -0.15711
B         -3.20442       -1.69214        0.42256
B         -4.51911       -0.72499       -0.11975
B         -0.24617        1.75607        0.94134
B         -1.60457        2.50807        0.23027
B         -3.08391        1.78095        0.12231
B         -4.55251        0.92988       -0.05584
B         -4.30680        2.50895       -0.80863
B         -2.90536        3.30370       -0.46852
B         -1.48104        4.10121       -0.50027
B         -0.17288        3.33532        0.33866
B         -0.04989        4.66481       -0.53605
B          2.64098        3.16291        0.06622
B          1.32692        4.04896       -0.15026
B          2.67749        1.55634        0.69097
B          4.01266        2.28222       -0.05326
B          4.06844        0.70126        0.44299
B          1.31428        2.50388        0.67955
B          1.16982       -2.47955        0.36004
B         -3.26154        0.07793        0.64899
B          1.17230        0.80594        1.11204
B         -4.47346       -2.39635       -0.52655
B          5.19683       -1.74742       -0.82531
B          5.32957       -0.11093       -0.33605
B          5.29962        1.57217       -0.54851
B          6.40947        0.65961       -1.23154
B          6.37770       -0.82836       -1.33235
B         -1.66993        0.82886        0.65552
B         -0.26411        0.02934        1.75082
B         -0.30815       -1.69358        0.89368
B         -5.57692       -1.49177       -1.03337
B         -5.70625        0.05688       -1.10311
B         -5.41790        1.58812       -1.22915
B         -0.25412        0.04929        0.01952
