45
isomer_2786.log	Energy: -113468.1763690
B         -2.64994       -1.73689       -0.35233
B         -2.66074       -3.13652        0.56749
B         -1.24890       -3.76318        0.97088
B          0.12325       -3.30644       -0.02040
B         -1.16149       -0.98679       -1.01134
B          2.05998       -0.63127       -1.46825
B          1.52453       -3.73148        0.73786
B         -4.03672       -0.79221       -0.26284
B          1.49548       -2.32503       -0.68533
B         -4.03027       -2.30389        0.49859
B          0.20305       -4.19368        1.29514
B          2.80782       -3.04404        0.13498
B          3.09475       -1.67824       -0.62644
B          4.56621       -0.84680       -0.04373
B          0.47594        1.61724       -0.70685
B          1.88095        2.39072       -0.11837
B          3.36129        1.69331       -0.18760
B          4.80761        0.82855       -0.16003
B          4.60117        2.35042        0.76633
B          3.21519        3.18037        0.53123
B          1.81466        3.98188        0.63824
B          0.43118        3.21826       -0.09289
B          0.38624        4.55987        0.75777
B         -2.35720        3.21507        0.00836
B         -0.98583        4.00478        0.36462
B         -2.43318        1.64979       -0.50719
B         -3.81071        2.53730       -0.01652
B         -3.94900        0.92098       -0.52870
B         -0.98534        2.36270       -0.42519
B         -1.40800       -2.79756       -0.51232
B          3.44755        0.11285       -0.86944
B         -0.91069        0.61610       -0.82301
B          4.30022       -2.45647        0.38074
B         -5.32762       -1.40448        0.73917
B         -5.32115        0.20292        0.13523
B         -5.22684        1.90556        0.26069
B         -6.43069        1.12063        0.86153
B         -6.45421       -0.37200        1.11586
B          1.86438        0.80426       -0.80040
B         -2.53833       -0.04720       -0.85429
B          0.53499       -0.79957       -1.25196
B          5.55882       -1.72707        0.82761
B          5.82015       -0.20325        0.94139
B          5.63722        1.31745        1.12237
B         -0.08579       -2.30693       -1.33067
