45
isomer_2787.log	Energy: -113427.7998821
B         -2.62677        1.60674        0.43312
B         -2.61158        3.29981        0.16760
B         -1.20939        4.09679        0.09851
B          0.25971        3.35758        0.75228
B         -1.15305        0.80598        0.56564
B          1.60708        0.82758        0.43020
B          1.64166        4.12478       -0.11726
B         -4.05521        0.83979        0.30893
B          1.71540        2.54332        0.40132
B         -3.96181        2.43525       -0.19662
B          0.19875        4.63450       -0.19934
B          3.05360        3.33039       -0.20055
B          3.09085        1.68685        0.13544
B          4.51429        0.85066       -0.17697
B          0.27769       -1.64898        1.11713
B          1.72009       -2.53917        0.40779
B          3.09528       -1.68393        0.13850
B          4.51812       -0.84549       -0.16607
B          4.41269       -2.50448       -0.67444
B          3.06485       -3.33161       -0.18161
B          1.65279       -4.12523       -0.10605
B          0.26400       -3.35234        0.74456
B          0.21134       -4.63533       -0.19844
B         -2.60487       -3.30218        0.16137
B         -1.19988       -4.09541        0.09187
B         -2.62593       -1.60962        0.42729
B         -3.95980       -2.44300       -0.19937
B         -4.05534       -0.84747        0.30798
B         -1.26042       -2.50924        0.63074
B         -1.26399        2.51306        0.63638
B          3.20767        0.00446        0.47180
B         -1.15994       -0.79869        0.55940
B          4.40595        2.50537       -0.69055
B         -5.17393        1.68325       -0.80887
B         -5.23135       -0.00413       -0.53605
B         -5.17350       -1.69197       -0.80900
B         -6.25821       -0.75065       -1.50708
B         -6.25933        0.74212       -1.50588
B          1.60181       -0.82848        0.37824
B          0.21522        0.00014        1.57201
B          0.27737        1.65716        1.12295
B          5.47931        1.56728       -1.21655
B          5.67667        0.00166       -1.18878
B          5.48106       -1.56325       -1.20698
B          0.20106       -0.00389       -0.17461
