45
isomer_2788.log	Energy: -113417.7023191
B         -2.43160        1.67125        0.24596
B         -2.30082        3.29385       -0.33975
B         -0.90584        4.07716       -0.34582
B          0.45240        3.31733        0.45580
B         -1.14888        0.82059        0.73316
B          1.83143        0.75286        1.06333
B          1.88822        4.05637       -0.20149
B         -3.91738        1.01819        0.08921
B          1.87407        2.44254        0.58559
B         -3.69883        2.51408       -0.48947
B          0.52677        4.64646       -0.45483
B          3.23162        3.15144       -0.11975
B          3.27690        1.61561        0.43238
B          4.53783        0.62206       -0.18048
B          0.12807       -1.45774        0.19213
B          1.57319       -2.44078        0.06960
B          3.07775       -1.84231        0.21952
B          4.57929       -1.04904        0.04586
B          4.28725       -2.61831       -0.70417
B          2.86633       -3.36623       -0.37744
B          1.38277       -4.14675       -0.30381
B          0.05693       -3.19200        0.06797
B         -0.04613       -4.71275       -0.25273
B         -2.75615       -3.17630        0.07523
B         -1.45444       -3.99690       -0.06491
B         -2.57666       -1.21300        0.55430
B         -3.97581       -2.28048        0.09808
B         -4.09987       -0.70578        0.39902
B         -1.37501       -2.33480        0.50846
B         -1.06321        2.58132        0.49460
B          3.27665       -0.12913        0.64741
B         -1.21369       -0.51238       -0.22462
B          4.58928        2.29991       -0.49362
B         -5.12232        1.76726       -0.83603
B         -5.34070        0.22170       -0.13944
B         -5.36644       -1.46878       -0.32637
B         -6.41818       -0.59601       -1.08021
B         -6.29095        0.86297       -1.31129
B          1.68877       -0.80509        0.62862
B         -1.14000       -0.91315        1.48976
B          0.38891        1.76322        1.04423
B          5.71371        1.36531       -0.94946
B          5.77513       -0.19609       -1.04855
B          5.39901       -1.69938       -1.17927
B          0.24060       -0.00829        1.28330
