45
isomer_0279.log	Energy: -112778.4576876
B         -2.61435        1.70820        0.38510
B         -2.59961        3.34755        0.01107
B         -1.18946        4.17464       -0.22176
B          0.26231        3.33637        0.33256
B         -1.15889        0.81118        0.69480
B          1.71544        0.83252        0.79448
B          1.65812        4.12055       -0.34649
B         -4.07499        0.83836        0.30112
B          1.64337        2.43910        0.23936
B         -4.00853        2.53184       -0.14916
B          0.23579        4.78855       -0.49053
B          3.08776        3.26970       -0.35693
B          3.10704        1.64613        0.20370
B          4.56697        0.83117       -0.28875
B          0.27393       -1.72000        0.84450
B          1.65767       -2.41658        0.22259
B          3.11664       -1.61478        0.19243
B          4.57174       -0.78785       -0.29435
B          4.40996       -2.34512       -0.54577
B          3.10693       -3.23452       -0.37940
B          1.68232       -4.09383       -0.37486
B          0.28193       -3.32260        0.30956
B          0.26394       -4.76919       -0.52354
B         -2.57988       -3.34843       -0.01206
B         -1.16489       -4.16556       -0.25057
B         -2.60427       -1.71181        0.37329
B         -3.99359       -2.53994       -0.16668
B         -4.07002       -0.85003        0.29528
B         -1.17253       -2.53246        0.54011
B         -1.18747        2.53610        0.55762
B          3.19293        0.11454        0.59545
B         -1.15412       -0.80839        0.68921
B          4.39601        2.38916       -0.52942
B         -5.32793        1.72497       -0.66248
B         -5.32140        0.09302       -0.43418
B         -5.31773       -1.73733       -0.67444
B         -6.48290       -0.78386       -1.27906
B         -6.48747        0.76885       -1.27370
B          1.72029       -0.81349        0.78879
B         -1.04522       -0.48682        2.35727
B          0.26376        1.73009        0.85641
B          5.90773        1.68329       -0.73864
B          6.10815       -0.02914       -0.80861
B          5.91550       -1.75966       -0.82115
B          0.40907        0.15549        0.03782
