45
isomer_2790.log	Energy: -113441.5905209
B         -2.37860        1.56634        0.42158
B         -2.26680        3.27059       -0.03034
B         -0.90203        4.05902       -0.13625
B          0.51279        3.39133        0.65957
B         -1.01936        0.90831        1.19570
B          1.88742        0.78837        0.95563
B          1.90195        4.06873       -0.25202
B         -3.88521        0.93897        0.22245
B          1.93135        2.51017        0.55274
B         -3.61721        2.46817       -0.34051
B          0.52477        4.63643       -0.41091
B          3.23133        3.14832       -0.30043
B          3.28700        1.61251        0.25517
B          4.56501        0.60939       -0.33693
B          0.24155       -1.73378        1.18392
B          1.58704       -2.53201        0.55113
B          3.08047       -1.79825        0.22003
B          4.55778       -1.05813       -0.13425
B          4.18233       -2.66513       -0.76456
B          2.83976       -3.37325       -0.19602
B          1.38693       -4.12885       -0.20885
B          0.06306       -3.27553        0.44060
B         -0.04657       -4.65659       -0.34630
B         -2.72253       -3.13585       -0.04134
B         -1.41899       -3.94623       -0.11011
B         -2.74443       -1.48637        0.15319
B         -4.15904       -2.37091       -0.21521
B         -4.15235       -0.74870        0.30189
B         -1.38538       -2.26220        0.68151
B         -1.01417        2.59911        0.75762
B          3.35649       -0.09428        0.60296
B         -1.95237       -0.18413        0.31797
B          4.47075        2.26403       -0.84638
B         -4.92701        1.84359       -0.92342
B         -5.19943        0.19924       -0.55122
B         -5.33395       -1.50759       -0.76407
B         -6.30229       -0.45131       -1.50996
B         -6.12617        1.02639       -1.55836
B          1.77923       -0.85735        0.75741
B         -1.02459       -0.79613        1.63731
B          0.51230        1.83420        1.21222
B          5.49073        1.30212       -1.42386
B          5.56016       -0.25272       -1.43500
B          5.20295       -1.78422       -1.41270
B          0.42530        0.05418        1.16840
