45
isomer_2791.log	Energy: -113469.5053430
B          2.59211       -1.46981        0.49981
B          2.65767       -3.16818        0.17528
B          1.32137       -3.92392       -0.17310
B         -0.05933       -2.90659       -0.35417
B          1.23298       -0.69971        0.77115
B         -1.68891       -0.84645        1.02693
B         -1.44251       -4.04468       -0.53894
B          4.02006       -0.70230        0.30350
B         -1.57298       -2.47561        0.30801
B          4.00403       -2.30038        0.01919
B         -0.05983       -4.56625       -0.54551
B         -2.84449       -3.28383       -0.38209
B         -3.01994       -1.76575        0.28281
B         -4.40987       -0.90780       -0.20150
B         -0.38831        1.81385        0.92334
B         -1.84917        2.50239        0.53970
B         -3.24648        1.66483        0.34283
B         -4.66060        0.69922        0.16524
B         -4.53067        2.35889       -0.51414
B         -3.21498        3.22733       -0.22667
B         -1.86312        4.09073       -0.36321
B         -0.43751        3.38027        0.33100
B         -0.47882        4.66470       -0.61062
B          2.36309        3.37341       -0.25480
B          0.97950        4.11979       -0.36951
B          2.48659        1.73704        0.56003
B          3.69518        2.56446       -0.33070
B          3.90149        1.04580        0.23460
B          1.06221        2.54903        0.35688
B          1.31648       -2.04981       -0.53812
B         -3.26272       -0.07433        0.70050
B          1.13043        0.94742        0.99304
B         -4.31703       -2.55242       -0.62600
B          5.32623       -1.44578       -0.45375
B          5.27502        0.23041       -0.15407
B          5.12619        1.82938       -0.68536
B          6.27521        0.97117       -1.23463
B          6.36919       -0.51423       -1.12839
B         -1.78056        0.82511        0.83625
B          1.28407       -2.58675        1.14356
B         -0.15196       -1.76281        0.98472
B         -5.51232       -1.73306       -1.01446
B         -5.76550       -0.17159       -0.97581
B         -5.58479        1.34819       -0.97770
B         -0.27669        0.00864        1.15489
