45
isomer_2793.log	Energy: -112695.9385076
B          2.65664       -1.71602        0.40495
B          2.47941       -3.36919       -0.03747
B          1.05265       -4.10059       -0.30204
B         -0.42663       -3.34545        0.23264
B          1.36978       -0.75366        0.73234
B         -1.92827       -0.81585        0.74293
B         -1.87473       -4.01442       -0.44702
B          4.06164       -0.93444        0.32385
B         -1.94734       -2.43147        0.12075
B          3.90278       -2.55146       -0.16678
B         -0.41267       -4.59020       -0.57463
B         -3.31174       -3.18261       -0.45033
B         -3.32880       -1.56673        0.13237
B         -4.71231       -0.66047       -0.27613
B         -0.02244        1.94877        0.82175
B         -1.59682        2.54912        0.14594
B         -3.10649        1.74625        0.20550
B         -4.58976        0.93605       -0.22603
B         -4.40542        2.56953       -0.55141
B         -2.89375        3.37617       -0.37836
B         -1.42304        4.18249       -0.38324
B         -0.03534        3.42739        0.30794
B          0.03493        4.72787       -0.46801
B          2.83456        3.32558        0.03769
B          1.49280        4.17042       -0.19410
B          2.85997        1.62608        0.41644
B          4.21145        2.37453       -0.11675
B          4.17378        0.77445        0.34409
B          1.52229        2.58653        0.55080
B          1.22745       -2.56395        0.52591
B         -3.32051       -0.01119        0.58945
B          1.55353        0.68399        0.67493
B         -4.73446       -2.28658       -0.62499
B          5.20042       -1.84687       -0.67851
B          5.30238       -0.18140       -0.40725
B          5.39555        1.54087       -0.59908
B          6.42494        0.53337       -1.22513
B          6.38208       -0.91900       -1.27666
B         -1.85169        0.73899        0.78427
B          0.18923       -1.64661        1.92649
B         -0.40472       -1.71675        0.80260
B         -5.99195       -1.33428       -0.72165
B         -6.04125        0.24574       -0.72907
B         -5.72571        1.76202       -0.72160
B         -0.24241        0.71300        0.73260
