45
isomer_2794.log	Energy: -113456.5461925
B         -1.85979       -1.82450       -0.53756
B         -1.39326       -3.22865        0.22072
B          0.01382       -3.96563        0.25899
B          1.28199       -3.47512       -0.73178
B         -1.16789       -0.57324       -1.41710
B          1.99715       -0.72030       -0.88876
B          2.74973       -3.81663        0.29397
B         -3.54433       -1.42259       -0.04197
B          2.63459       -2.41714       -0.73905
B         -2.83268       -2.76192        0.61392
B          1.40487       -4.50274        0.48821
B          3.91191       -2.75697        0.27357
B          3.52097       -1.16927       -0.15122
B          4.66414        0.00748        0.14485
B         -0.29170        1.68286       -1.13268
B          0.90009        2.48744       -0.33652
B          2.46152        2.00588       -0.00682
B          4.13566        1.58764        0.30467
B          3.55313        3.09076        0.84840
B          2.05372        3.49645        0.46969
B          0.58384        4.11658        0.47372
B         -0.54872        3.28447       -0.48143
B         -0.87336        4.51394        0.52943
B         -3.40349        2.91394       -0.12686
B         -2.16731        3.87156        0.05401
B         -3.23710        1.41889       -0.89285
B         -4.54817        1.78775        0.11002
B         -4.19871        0.17265       -0.30717
B         -1.97006        2.46674       -0.93783
B         -0.25338       -2.42103       -0.67426
B          3.04935        0.44716       -0.36878
B         -1.72095        0.96791       -1.54875
B          5.01250       -1.59305        0.67587
B         -4.23982       -2.37414        1.21816
B         -4.99533       -0.92517        0.69096
B         -5.49761        0.71154        0.78218
B         -6.08922       -0.39346        1.73593
B         -5.51434       -1.77295        1.94431
B          1.25148        0.82534       -0.74905
B         -2.71794       -0.34323       -1.01075
B          1.19460       -2.03347       -1.48846
B          5.81611       -0.41835        1.16066
B          5.56397        1.13951        1.18685
B          4.94007        2.55918        1.24984
B          0.36996       -0.64610       -1.15928
