45
isomer_2798.log	Energy: -111941.0301209
B          2.61853       -1.68001        0.38803
B          2.61339       -3.31452       -0.00687
B          1.20823       -4.14582       -0.25444
B         -0.24948       -3.32215        0.30614
B          1.15755       -0.79451        0.70474
B         -1.71692       -0.83190        0.79549
B         -1.63921       -4.10478       -0.38703
B          4.07489       -0.80168        0.31950
B         -1.63489       -2.43088        0.22021
B          4.01853       -2.48960       -0.15247
B         -0.21302       -4.76358       -0.53528
B         -3.07321       -3.26124       -0.39094
B         -3.10254       -1.64506        0.19023
B         -4.56522       -0.83142       -0.29620
B         -0.28880        1.72716        0.88231
B         -1.67430        2.42448        0.26515
B         -3.12900        1.61564        0.22042
B         -4.57836        0.78750       -0.28122
B         -4.42391        2.34866       -0.51232
B         -3.12600        3.24256       -0.33073
B         -1.70588        4.10905       -0.31099
B         -0.30353        3.33638        0.36778
B         -0.29059        4.79354       -0.44680
B          2.55904        3.38102        0.05512
B          1.14054        4.19384       -0.17723
B          2.59077        1.73977        0.41969
B          3.97737        2.58184       -0.10552
B          4.06119        0.88661        0.33514
B          1.15432        2.55086        0.59263
B          1.19546       -2.51737        0.54571
B         -3.19752       -0.11905        0.60117
B          1.14440        0.82496        0.71973
B         -4.38548       -2.38531       -0.55615
B          5.33524       -1.66948       -0.65151
B          5.31958       -0.04063       -0.40250
B          5.30714        1.79259       -0.61946
B          6.47900        0.85290       -1.23266
B          6.49160       -0.69971       -1.24704
B         -1.73028        0.81400        0.81073
B          0.61638       -1.50384        1.46722
B         -0.26080       -1.72270        0.85037
B         -5.90022       -1.68462       -0.76092
B         -6.10930        0.02751       -0.80970
B         -5.92558        1.75901       -0.79965
B          0.16087        0.96995        0.21017
