45
isomer_0028.log	Energy: -113329.8665193
B         -2.53529        1.69674        0.47770
B         -2.52934        3.38398       -0.01135
B         -1.18242        4.17414       -0.09062
B          0.30609        3.43621        0.57079
B         -1.13800        0.89371        0.73534
B          1.79256        0.90647        0.95957
B          1.66541        4.11735       -0.27621
B         -3.94870        0.91995        0.28577
B          1.73782        2.54168        0.35331
B         -3.84791        2.48696       -0.25997
B          0.23162        4.68013       -0.41829
B          3.06208        3.30209       -0.26422
B          3.14628        1.73882        0.30397
B          4.53282        0.79159       -0.11876
B          0.39905       -1.70143        1.51116
B          1.45458       -2.29135        0.13044
B          3.01625       -1.71522        0.18174
B          4.48003       -0.87755       -0.19436
B          4.22389       -2.48915       -0.76547
B          2.84101       -3.21230       -0.43232
B          1.52820       -4.12500       -0.36109
B          0.19970       -3.30531        0.39912
B          0.15059       -4.73444       -0.28989
B         -2.70542       -3.25199        0.16061
B         -1.27212       -4.06536        0.03072
B         -2.61381       -1.50757        0.52384
B         -3.93916       -2.34383       -0.13309
B         -3.99359       -0.73106        0.33099
B         -1.32594       -2.51794        0.67617
B         -1.19225        2.57657        0.59049
B          3.27776       -0.03212        0.66570
B         -1.10448       -0.76624        0.74616
B          4.42848        2.43907       -0.61501
B         -5.11774        1.74839       -0.79213
B         -5.15803        0.08586       -0.51424
B         -5.18713       -1.58344       -0.72907
B         -6.28362       -0.67457       -1.36902
B         -6.25539        0.83276       -1.41148
B          1.81976       -0.83548        1.03617
B          0.31213        0.04511        1.27408
B          0.30907        1.76571        0.91724
B          5.49101        1.50816       -1.15674
B          5.62495       -0.05919       -1.20014
B          5.38162       -1.59864       -1.26492
B         -0.08241       -1.65225       -0.19270
