45
isomer_0280.log	Energy: -112378.8957647
B         -2.59924        1.74916        0.42815
B         -2.58507        3.39024        0.06174
B         -1.17551        4.21695       -0.17593
B          0.27877        3.37456        0.36545
B         -1.14286        0.84918        0.72461
B          1.73205        0.86706        0.80659
B          1.67118        4.16048       -0.31855
B         -4.06131        0.88125        0.34913
B          1.65826        2.47631        0.25948
B         -3.99583        2.57675       -0.09359
B          0.24871        4.83063       -0.45063
B          3.09983        3.30820       -0.34184
B          3.12084        1.68200        0.21102
B          4.57683        0.86784       -0.29429
B          0.28815       -1.68416        0.85354
B          1.66728       -2.37925        0.21981
B          3.12689       -1.57884        0.18438
B          4.57983       -0.75114       -0.30751
B          4.41483       -2.30704       -0.56524
B          3.11190       -3.19585       -0.39498
B          1.68643       -4.05370       -0.38567
B          0.29113       -3.28423        0.31104
B          0.26644       -4.72688       -0.52873
B         -2.57264       -3.30557        0.00703
B         -1.16003       -4.12305       -0.24407
B         -2.59290       -1.67076        0.40021
B         -3.98642       -2.49490       -0.13503
B         -4.05818       -0.80711        0.33533
B         -1.16103       -2.49368        0.55430
B         -1.17044        2.57475        0.59572
B          3.20752        0.14849        0.59503
B         -1.13986       -0.77035        0.71138
B          4.40604        2.42713       -0.52656
B         -5.31924        1.77368       -0.60251
B         -5.31304        0.14066       -0.38192
B         -5.31282       -1.68853       -0.63079
B         -6.48068       -0.73102       -1.22371
B         -6.48356        0.82165       -1.21102
B          1.73511       -0.77890        0.79314
B         -1.18945       -0.77569       -0.42880
B          0.28175        1.76584        0.88172
B          5.91568        1.72068       -0.74846
B          6.11383        0.00839       -0.82771
B          5.91926       -1.72185       -0.84719
B          0.10157       -1.28936        2.01592
