45
isomer_2800.log	Energy: -113409.2079343
B          2.56414        1.78050       -0.66440
B          2.51516        3.39839       -0.09885
B          1.11454        4.16075        0.08667
B         -0.31694        3.41611       -0.46466
B          1.20529        0.97611       -1.23435
B         -1.81815        0.95692       -0.97369
B         -1.70368        4.11916        0.35895
B          3.85156        0.99241       -0.04057
B         -1.80323        2.60049       -0.41102
B          3.91253        2.64122        0.05110
B         -0.27211        4.71420        0.44989
B         -3.07902        3.29687        0.39694
B         -3.13665        1.71860       -0.16283
B         -4.49722        0.81655        0.32244
B         -0.24709       -1.53975       -0.87505
B         -1.65578       -2.46685       -0.49003
B         -3.09110       -1.66950       -0.22381
B         -4.56941       -0.85022        0.02064
B         -4.29311       -2.46279        0.67243
B         -2.93569       -3.25664        0.25512
B         -1.52009       -4.03469        0.17002
B         -0.13259       -3.22198       -0.44882
B         -0.08480       -4.62369        0.40235
B          2.45885       -3.16228        0.17176
B          1.34570       -4.25213        0.63608
B          2.49669       -1.49134       -0.38062
B          3.68822       -2.22843        0.51870
B          3.76012       -0.63857        0.10849
B          1.28441       -2.37628       -1.13441
B          1.20512        2.65149       -0.78433
B         -3.24666        0.04237       -0.57275
B          1.29495       -0.68332       -1.15577
B         -4.44036        2.45769        0.79750
B          5.17710        1.87692        0.60967
B          5.22308        0.13889        0.34654
B          5.05678       -1.43779        0.98245
B          6.15779       -0.54201        1.52429
B          6.13348        0.95386        1.43180
B         -1.68356       -0.76778       -0.77556
B          1.33769       -3.94811       -0.88884
B         -0.34928        1.82964       -1.13185
B         -5.56612        1.54279        1.23604
B         -5.69709       -0.03809        1.19265
B         -5.39824       -1.54333        1.20059
B         -0.24523        0.15363       -1.03090
