45
isomer_2802.log	Energy: -113675.8856289
B          2.56341        1.73015       -0.53033
B          2.51431        3.30377        0.03695
B          1.15790        4.14950        0.10741
B         -0.26838        3.40352       -0.54095
B          1.17065        0.85105       -1.06846
B         -1.71738        0.84339       -0.78601
B         -1.64085        4.17070        0.25683
B          3.98400        0.84486       -0.22391
B         -1.72337        2.55153       -0.43015
B          3.86979        2.48453        0.27648
B         -0.21853        4.74863        0.35114
B         -3.00750        3.34164        0.27822
B         -3.12842        1.73425       -0.22068
B         -4.54625        0.89501        0.14528
B         -0.37004       -1.82505       -1.11784
B         -1.80266       -2.53269       -0.48955
B         -3.17383       -1.68010       -0.26069
B         -4.53125       -0.79666        0.23982
B         -4.40709       -2.44411        0.74958
B         -3.09279       -3.28028        0.26552
B         -1.74925       -4.14436        0.24509
B         -0.35188       -3.38469       -0.51504
B         -0.34289       -4.74602        0.35080
B          2.42655       -3.33542        0.03906
B          1.04652       -4.15760        0.12175
B          2.50817       -1.75988       -0.48823
B          3.80873       -2.53777        0.29287
B          3.95533       -0.91111       -0.21487
B          1.11864       -2.59020       -0.76544
B          1.18641        2.57759       -0.78860
B         -3.29338        0.01630       -0.60923
B          1.12897       -0.84875       -1.04212
B         -4.32461        2.50041        0.77136
B          5.10448        1.65071        0.84568
B          5.19475       -0.04564        0.52379
B          5.05963       -1.73982        0.86527
B          6.08367       -0.81540        1.61354
B          6.10448        0.70520        1.60632
B         -1.78758       -0.83060       -0.91298
B          2.60913       -0.01617       -0.74606
B         -0.31230        1.83048       -1.08711
B         -5.37045        1.56993        1.34005
B         -5.61850        0.03401        1.30645
B         -5.47322       -1.51804        1.30214
B         -0.34308        0.00318       -1.09318
