45
isomer_2803.log	Energy: -111194.1784708
B          2.51687        1.74923       -0.45749
B          2.49184        3.38384       -0.06376
B          1.07704        4.19601        0.19218
B         -0.37280        3.35198       -0.35845
B          1.06617        0.84353       -0.76420
B         -1.80906        0.84145       -0.83659
B         -1.76867        4.11607        0.34302
B          3.98554        0.89098       -0.39764
B         -1.74529        2.44188       -0.26301
B          3.90907        2.57836        0.07345
B         -0.35073        4.79446        0.48166
B         -3.19091        3.25295        0.35672
B         -3.20180        1.63605       -0.22307
B         -4.65006        0.80284        0.27330
B         -0.34658       -1.69786       -0.93067
B         -1.71843       -2.41360       -0.30416
B         -3.18377       -1.62473       -0.25071
B         -4.64110       -0.81612        0.25958
B         -4.46379       -2.37483        0.49083
B         -3.15494       -3.25100        0.30160
B         -1.72323       -4.09797        0.27340
B         -0.33597       -3.30671       -0.41489
B         -0.29785       -4.76290        0.40065
B          2.52888       -3.31187       -0.12051
B          1.12317       -4.14386        0.12150
B          2.53579       -1.67064       -0.48647
B          3.93712       -2.49321        0.03047
B          3.99488       -0.79734       -0.41195
B          1.10951       -2.50148       -0.64963
B          1.08148        2.56688       -0.60668
B         -3.27848        0.10854       -0.63228
B          1.07513       -0.77598       -0.77792
B         -4.48998        2.35927        0.53096
B          5.24005        1.77677        0.56466
B          5.24513        0.14765        0.31694
B          5.25920       -1.68538        0.53532
B          6.42196       -0.72923        1.14033
B          6.41338        0.82342        1.15349
B         -1.79995       -0.80449       -0.85055
B          2.58716       -1.20580        1.30550
B         -0.36567        1.75208       -0.90143
B         -5.99363        1.63805        0.74593
B         -6.17891       -0.07674        0.79729
B         -5.97154       -1.80557        0.78733
B          1.43374        0.29504       -0.77400
