45
isomer_2805.log	Energy: -111879.5340687
B         -2.69301       -1.60392       -0.35918
B         -2.66190       -3.26007        0.01915
B         -1.24557       -4.09586        0.25065
B          0.24295       -3.30209       -0.31569
B         -1.13728       -0.65002       -0.74728
B          1.77257       -0.76226       -0.82341
B          1.62691       -4.09486        0.39015
B         -4.09313       -0.69033       -0.31453
B          1.69774       -2.39901       -0.22029
B         -4.07302       -2.40162        0.17345
B          0.18644       -4.71386        0.52708
B          3.09753       -3.23542        0.39009
B          3.14987       -1.61838       -0.19811
B          4.61158       -0.79953        0.28463
B          0.33594        1.79390       -0.90402
B          1.73232        2.47805       -0.28382
B          3.18443        1.65938       -0.23836
B          4.63289        0.81737        0.26572
B          4.48940        2.38731        0.50542
B          3.18106        3.28000        0.31654
B          1.76579        4.15049        0.29977
B          0.36176        3.39882       -0.37774
B          0.36385        4.82825        0.43824
B         -2.49011        3.45936       -0.05040
B         -1.07115        4.25249        0.17467
B         -2.55095        1.82001       -0.42723
B         -3.91024        2.67051        0.11811
B         -4.03856        0.99621       -0.32695
B         -1.10636        2.62542       -0.60207
B         -1.22079       -2.46228       -0.56288
B          3.24959       -0.06661       -0.62126
B         -1.10841        0.90996       -0.74504
B          4.43543       -2.36611        0.55997
B         -5.34569       -1.54792        0.67157
B         -5.29621        0.09411        0.42015
B         -5.23976        1.90678        0.64074
B         -6.40979        0.99076        1.25745
B         -6.46539       -0.54410        1.27422
B          1.78592        0.87558       -0.83362
B         -2.36239       -1.35345       -1.06765
B          0.24190       -1.58056       -0.95833
B          5.91911       -1.63974        0.75455
B          6.12789        0.05391        0.79479
B          5.95855        1.74079        0.78291
B          0.36829       -2.00145       -0.33214
