45
isomer_2807.log	Energy: -113348.2598133
B          2.54736        1.64318       -0.62816
B          2.52041        3.31948        0.20064
B          1.15494        4.03950        0.41652
B         -0.31762        3.30303       -0.07618
B          1.10344        0.96634       -1.00413
B         -1.74805        0.85523       -0.65910
B         -1.70005        4.09703        0.49919
B          3.96993        1.00079       -0.50757
B         -1.76032        2.47731       -0.27487
B          3.82814        2.54666        0.08568
B         -0.28553        4.64727        0.72724
B         -3.14239        3.32114        0.29228
B         -3.23540        1.76995       -0.28945
B         -4.69082        0.89079       -0.30155
B         -0.33908       -1.53210       -1.08609
B         -1.66493       -2.42974       -0.36582
B         -3.14430       -1.63421       -0.43526
B         -4.52632       -0.73830        0.02372
B         -4.48794       -2.39727        0.38587
B         -3.08051       -3.21023        0.09467
B         -1.72331       -3.92731        0.39215
B         -0.04776       -3.16653       -0.35813
B         -0.43290       -3.94299        1.06789
B          1.80161       -3.29048       -0.47867
B          1.00311       -3.34915        1.17473
B          2.45568       -1.58484       -0.53382
B          3.78512       -2.15210        0.48352
B          3.87789       -0.73105       -0.33296
B          1.07052       -2.31959       -1.49103
B          1.14736        2.45477       -0.33010
B         -3.29400        0.07717       -0.78921
B          1.11288       -0.61889       -0.92127
B         -4.50659        2.52996        0.49464
B          5.27737        1.77665        0.27616
B          5.30069        0.12309       -0.13200
B          5.21145       -1.44873        0.51085
B          6.36057       -0.52183        0.96452
B          6.42154        0.94170        0.81375
B         -1.75642       -0.75179       -0.91367
B          2.48363       -2.86619        0.95140
B         -0.34632        1.67026       -0.71784
B         -5.58956        1.51240        0.89085
B         -5.87040        0.01769        0.78089
B         -5.68010       -1.55178        0.77077
B          0.93700       -1.81630        0.32895
