45
isomer_2808.log	Energy: -113400.1923959
B          2.69216       -1.52854        0.52465
B          2.62313       -3.20990        0.13711
B          1.30283       -4.04666        0.07292
B         -0.33028       -3.38109        0.67574
B          1.20820       -0.69042        0.64213
B         -1.73593       -0.80656        1.21858
B         -1.36888       -4.00933       -0.65863
B          4.09620       -0.74644        0.48137
B         -1.29304       -2.30012       -0.46402
B          4.01728       -2.29174       -0.12094
B         -0.05574       -4.63287       -0.33145
B         -2.67682       -3.05395       -0.82904
B         -2.91623       -1.79977        0.27588
B         -4.30709       -0.85369       -0.21649
B         -0.35605        1.81029        0.81605
B         -1.77005        2.57845        0.49386
B         -3.17849        1.72049        0.37356
B         -4.54921        0.77634        0.00681
B         -4.45441        2.44918       -0.54123
B         -3.10385        3.28253       -0.21786
B         -1.73326        4.18722       -0.26365
B         -0.32203        3.42137        0.38890
B         -0.32773        4.79365       -0.42130
B          2.52705        3.38974       -0.03218
B          1.09472        4.21476       -0.19805
B          2.58679        1.73880        0.36204
B          3.93966        2.53237       -0.19885
B          4.06235        0.95622        0.35098
B          1.18783        2.60725        0.38834
B          1.27499       -2.44512        0.56491
B         -3.19848        0.00173        0.64736
B          1.16781        0.89189        0.60721
B         -4.16993       -2.40281       -0.86796
B          5.33680       -1.61129       -0.56300
B          5.30780        0.08493       -0.34982
B          5.15348        1.72400       -0.76672
B          6.29699        0.77699       -1.38144
B          6.42914       -0.69200       -1.21849
B         -1.73997        0.83215        1.02685
B         -0.19706        0.08411        1.00412
B         -0.24654       -1.64638        0.67080
B         -5.40147       -1.60183       -1.14228
B         -5.64621       -0.04913       -1.05603
B         -5.51024        1.48403       -1.05396
B         -1.71619       -2.53884        1.16320
