45
isomer_2809.log	Energy: -112729.6928362
B         -2.72583       -1.68460       -0.40271
B         -2.70615       -3.33985        0.01895
B         -1.30258       -4.15146        0.27214
B          0.18858       -3.37297       -0.31052
B         -1.31057       -0.85007       -0.73304
B          1.78921       -0.81502       -0.76130
B          1.60119       -4.10599        0.40679
B         -4.12786       -0.77168       -0.30105
B          1.70670       -2.44409       -0.17813
B         -4.07999       -2.44526        0.17583
B          0.15065       -4.71859        0.54068
B          3.08027       -3.27202        0.42971
B          3.15085       -1.65354       -0.14777
B          4.60344       -0.81979        0.32960
B          0.36873        1.82336       -0.92597
B          1.76395        2.46691       -0.28488
B          3.19835        1.64657       -0.21828
B          4.62379        0.80723        0.29460
B          4.50563        2.38480        0.53846
B          3.18067        3.26728        0.32679
B          1.76944        4.11930        0.30424
B          0.35540        3.38400       -0.38810
B          0.35805        4.76589        0.42165
B         -2.54590        3.42396       -0.06005
B         -1.09431        4.21444        0.15323
B         -2.69936        1.76875       -0.43705
B         -4.00036        2.61583        0.11488
B         -4.10326        0.95304       -0.32673
B         -1.20459        2.59479       -0.60276
B         -1.33597       -2.57866       -0.56321
B          3.26385       -0.09173       -0.57703
B         -1.41823        0.82185       -0.74644
B          4.44528       -2.40257        0.62570
B         -5.34175       -1.60032        0.70747
B         -5.31935        0.04552        0.44343
B         -5.28509        1.84034        0.64424
B         -6.40700        0.91342        1.28396
B         -6.45497       -0.59310        1.31912
B          1.80850        0.85754       -0.81721
B         -0.38061        0.69237       -0.48677
B          0.29270       -1.74886       -0.77249
B          5.88395       -1.63468        0.79884
B          6.07768        0.03715        0.82691
B          5.90938        1.66494        0.81076
B         -0.23251       -2.01441       -1.74648
