45
isomer_2812.log	Energy: -112542.8496873
B          2.62211       -1.67879        0.35780
B          2.61542       -3.31185       -0.04302
B          1.20945       -4.14109       -0.29287
B         -0.24730       -3.31826        0.27143
B          1.16202       -0.79324        0.67846
B         -1.71243       -0.82859        0.77056
B         -1.63802       -4.09724       -0.42386
B          4.07916       -0.80141        0.29171
B         -1.63201       -2.42554        0.18944
B          4.02117       -2.48756       -0.18635
B         -0.21245       -4.75666       -0.57522
B         -3.07132       -3.25250       -0.42398
B         -3.09903       -1.63842        0.16306
B         -4.56129       -0.82181       -0.31967
B         -0.28216        1.72896        0.86591
B         -1.66740        2.42965        0.25200
B         -3.12279        1.62217        0.20508
B         -4.57308        0.79705       -0.29881
B         -4.41746        2.35891       -0.52434
B         -3.11872        3.25108       -0.34018
B         -1.69788        4.11633       -0.31802
B         -0.29582        3.34004        0.35723
B         -0.28210        4.80014       -0.45208
B          2.56662        3.38346        0.04326
B          1.14868        4.19829       -0.18542
B          2.59719        1.74088        0.40186
B          3.98421        2.58371       -0.12100
B          4.06686        0.88682        0.31346
B          1.16149        2.55252        0.57848
B          1.19843       -2.51554        0.51318
B         -3.19254       -0.11382        0.57958
B          1.15022        0.82618        0.69933
B         -4.38296       -2.37491       -0.58534
B          5.33830       -1.66673       -0.68309
B          5.32411       -0.03877       -0.42817
B          5.31307        1.79523       -0.63848
B          6.48384        0.85680       -1.25569
B          6.49515       -0.69575       -1.27569
B         -1.72442        0.81725        0.79177
B          0.48506       -1.25086        2.40769
B         -0.25701       -1.72079        0.82146
B         -5.89722       -1.67223       -0.78679
B         -6.10492        0.04024       -0.82926
B         -5.91976        1.77154       -0.81303
B          0.08754        0.50509        0.24763
