45
isomer_2819.log	Energy: -113638.1704029
B          2.64607       -1.61345        0.72744
B          2.66846       -3.23722        0.20790
B          1.34931       -4.09262       -0.03562
B         -0.12937       -3.35734        0.37907
B          1.15306       -0.80506        1.40132
B         -1.63644       -0.86284        0.68772
B         -1.42575       -4.15533       -0.50231
B          3.94939       -0.74850        0.17912
B         -1.56425       -2.52714        0.21997
B          4.06189       -2.41951        0.05466
B          0.00714       -4.69371       -0.49454
B         -2.83166       -3.37050       -0.51112
B         -3.00786       -1.82128        0.05800
B         -4.46669       -1.00896       -0.25518
B         -0.41851        1.81357        1.04764
B         -1.88518        2.47190        0.46286
B         -3.23673        1.59809        0.30598
B         -4.60209        0.65026       -0.06962
B         -4.61699        2.31601       -0.48947
B         -3.26518        3.19684       -0.14260
B         -1.91891        4.08300       -0.24226
B         -0.49718        3.41674        0.55530
B         -0.53083        4.67802       -0.44745
B          2.29424        3.37694       -0.26884
B          0.90635        4.16948       -0.25401
B          2.39921        1.79336        0.37291
B          3.69238        2.63443       -0.50090
B          3.85479        1.02410        0.01831
B          1.00615        2.64029        0.56796
B          1.29655       -2.48014        0.82028
B         -3.22867       -0.13048        0.48678
B          1.11383        0.96169        1.06055
B         -4.26675       -2.63068       -0.81261
B          5.26405       -1.58265       -0.61511
B          5.11619        0.15624       -0.59889
B          5.02325        1.85035       -0.95067
B          6.15591        0.89696       -1.55165
B          6.23212       -0.63019       -1.42842
B         -1.72486        0.74738        0.81135
B          2.52129        0.11356        0.72954
B         -0.24751       -1.81019        0.98559
B         -5.45850       -1.75922       -1.23547
B         -5.74803       -0.21531       -1.12635
B         -5.65562        1.35187       -1.03986
B         -0.34808        0.01126        1.43272
