45
isomer_0282.log	Energy: -112420.6638397
B         -2.67147        1.70894        0.41645
B         -2.66883        3.35129        0.05552
B         -1.26524        4.18788       -0.18295
B          0.19582        3.35311        0.35192
B         -1.20856        0.81741        0.70620
B          1.66638        0.85360        0.78096
B          1.58138        4.15029       -0.33296
B         -4.12810        0.83186        0.33822
B          1.58081        2.46415        0.23944
B         -4.07470        2.52922       -0.09897
B          0.15427        4.81168       -0.45919
B          3.01544        3.30735       -0.36273
B          3.04835        1.67948        0.18462
B          4.50827        0.87645       -0.32710
B          0.23910       -1.70705        0.82300
B          1.62107       -2.39109        0.18345
B          3.07539       -1.58114        0.14702
B          4.52169       -0.74243       -0.34577
B          4.36608       -2.29850       -0.60830
B          3.06936       -3.19628       -0.43773
B          1.64948       -4.06334       -0.42768
B          0.25103       -3.30525        0.27513
B          0.23351       -4.74521       -0.56941
B         -2.61331       -3.34408       -0.02170
B         -1.19610       -4.15157       -0.27912
B         -2.64312       -1.71076        0.37701
B         -4.03265       -2.54209       -0.15746
B         -4.11410       -0.85638        0.31875
B         -1.20558       -2.52491        0.52472
B         -1.24760        2.54319        0.58317
B          3.14591        0.14529        0.56326
B         -1.19513       -0.80202        0.68753
B          4.32683        2.43536       -0.55371
B         -5.39419        1.71932       -0.60723
B         -5.37689        0.08565       -0.39215
B         -5.36549       -1.74267       -0.64716
B         -6.54102       -0.79075       -1.23390
B         -6.55389        0.76182       -1.21599
B          1.68003       -0.79226        0.76198
B          0.71711       -1.21773        2.55417
B          0.21050        1.74273        0.86278
B          5.84043        1.73943       -0.78180
B          6.04943        0.02873       -0.86730
B          5.86598       -1.70265       -0.89209
B          0.88234        0.08392        0.06706
