45
isomer_2821.log	Energy: -113675.8865953
B          2.50990        1.75947       -0.48919
B          2.42856        3.33406        0.04017
B          1.04886        4.15699        0.12307
B         -0.34999        3.38515       -0.51472
B          1.13030        0.84871       -1.04274
B         -1.78547        0.83054       -0.90951
B         -1.74672        4.14460        0.24659
B          3.95669        0.90958       -0.21558
B         -1.80102        2.53287       -0.48829
B          3.81063        2.53648        0.29259
B         -0.34008        4.74587        0.35247
B         -3.09077        3.28124        0.26626
B         -3.17289        1.68110       -0.25951
B         -4.53248        0.79900        0.23625
B         -0.31346       -1.83061       -1.08774
B         -1.72552       -2.55094       -0.43186
B         -3.12997       -1.73282       -0.22212
B         -4.54697       -0.89293        0.14639
B         -4.32742       -2.49883        0.77034
B         -3.00951       -3.33957        0.27839
B         -1.64321       -4.16925        0.25855
B         -0.26990       -3.40247       -0.53767
B         -0.22132       -4.74781        0.35380
B          2.51258       -3.30420        0.03693
B          1.15535       -4.14929        0.10936
B          2.56262       -1.73104       -0.52982
B          3.86893       -2.48572        0.27605
B          3.98372       -0.84614       -0.22444
B          1.18500       -2.57763       -0.78872
B          1.12012        2.58992       -0.76544
B         -3.29381       -0.01569       -0.60928
B          1.16974       -0.85069       -1.06838
B         -4.40583        2.44504        0.74977
B          5.06140        1.73765        0.86441
B          5.19564        0.04332        0.52281
B          5.10407       -1.65293        0.84541
B          6.10470       -0.70819        1.60557
B          6.08468        0.81261        1.61288
B         -1.71887       -0.84327       -0.79063
B          2.60957        0.01574       -0.74581
B         -0.36834        1.82552       -1.11678
B         -5.47193        1.51918        1.30230
B         -5.61999       -0.03269        1.30469
B         -5.37463       -1.56925        1.33796
B         -0.34297       -0.00269       -1.09477
