45
isomer_2822.log	Energy: -113295.7439801
B         -2.65727       -1.45541       -0.46132
B         -3.17891       -3.16579       -0.54902
B         -1.26496       -4.43156       -0.19835
B          0.14192       -3.40552       -0.32834
B         -2.10904        0.11996       -0.50013
B          1.61166       -0.86129       -0.63332
B          1.45940       -4.16491        0.56316
B         -3.88820       -0.47511       -0.14345
B          1.61483       -2.58039       -0.13870
B         -4.19262       -2.04800        0.05897
B          0.06682       -4.73012        0.55718
B          2.89908       -3.37264        0.52331
B          3.02997       -1.81333       -0.00782
B          4.50730       -0.99887        0.15613
B          0.49362        1.83648       -1.05934
B          1.94775        2.48357       -0.57110
B          3.28156        1.61110       -0.29635
B          4.58957        0.64794        0.13862
B          4.66942        2.33134        0.45364
B          3.36530        3.21459       -0.00693
B          2.06418        4.16022       -0.00870
B          0.60197        3.52423       -0.69836
B          0.73167        4.85195        0.14404
B         -2.16208        3.64716        0.06788
B         -0.74358        4.35536       -0.02720
B         -2.28818        1.89758       -0.39957
B         -3.50981        2.87576        0.33347
B         -3.70408        1.25750        0.01331
B         -0.98662        2.87085       -0.77250
B         -1.37168       -2.68082       -0.78334
B          3.19348       -0.12575       -0.48095
B         -0.94767        1.13886       -0.87463
B          4.30914       -2.58391        0.82296
B         -5.31062       -1.15281        0.72422
B         -5.03138        0.51459        0.61490
B         -4.84482        2.15941        0.94494
B         -5.99925        1.32847        1.60613
B         -6.22254       -0.15755        1.49103
B          1.73428        0.77447       -0.77408
B         -2.25961       -4.06286       -1.19001
B          0.34009       -1.83704       -0.87731
B          5.48170       -1.69819        1.20183
B          5.79231       -0.17430        1.07152
B          5.73060        1.37245        0.96661
B         -0.98469       -0.99767       -0.67302
