45
isomer_2823.log	Energy: -111230.6758177
B          2.58125        1.79060       -0.44264
B          2.55616        3.42830       -0.06196
B          1.14104        4.24399        0.18076
B         -0.30708        3.39719       -0.37015
B          1.13102        0.88407       -0.74914
B         -1.74382        0.88452       -0.83533
B         -1.70544        4.16830        0.31856
B          4.04866        0.93128       -0.36896
B         -1.68102        2.48935       -0.27411
B          3.97180        2.62241        0.08842
B         -0.28742        4.84625        0.45864
B         -3.12870        3.30685        0.33225
B         -3.13861        1.68544       -0.23480
B         -4.59015        0.85773        0.26118
B         -0.28374       -1.65704       -0.90232
B         -1.65937       -2.36632       -0.27677
B         -3.12407       -1.57548       -0.23659
B         -4.58294       -0.76129        0.26029
B         -4.40847       -2.31831        0.50470
B         -3.09970       -3.19736        0.32868
B         -1.66882       -4.04608        0.31405
B         -0.27739       -3.26177       -0.37380
B         -0.24481       -4.71150        0.45340
B          2.58601       -3.26768       -0.06563
B          1.17823       -4.09622        0.17619
B          2.59650       -1.62941       -0.44451
B          3.99442       -2.44937        0.08564
B          4.05619       -0.75712       -0.36988
B          1.17009       -2.45997       -0.60795
B          1.14750        2.60859       -0.60517
B         -3.21502        0.15482       -0.63230
B          1.13825       -0.73551       -0.75003
B         -4.42958        2.41598        0.50730
B          5.29953        1.82330        0.59233
B          5.30398        0.19226        0.35751
B          5.31496       -1.63901        0.59043
B          6.47587       -0.67934        1.19345
B          6.46895        0.87336        1.19430
B         -1.73648       -0.76150       -0.83623
B          0.81054       -2.88443       -0.04699
B         -0.29912        1.79305       -0.90043
B         -5.93504        1.69810        0.72073
B         -6.12247       -0.01603        0.78475
B         -5.91699       -1.74511        0.78944
B          0.61532       -0.07986       -0.10730
