45
isomer_2826.log	Energy: -112955.8046045
B         -2.76998       -1.62078       -0.64056
B         -2.77281       -3.30598       -0.10154
B         -1.47848       -4.23590        0.11933
B          0.09982       -3.34772       -0.39520
B         -1.39129       -0.99717       -1.11712
B          1.61969       -0.83396       -0.93026
B          1.42575       -4.05416        0.35496
B         -4.00664       -0.61020       -0.42566
B          1.51301       -2.42627       -0.30150
B         -4.08991       -2.28615        0.02228
B         -0.03135       -4.66579        0.45962
B          2.79517       -3.28119        0.37738
B          2.95065       -1.73740       -0.20803
B          4.40159       -0.94686        0.30312
B          0.47082        1.90446       -0.99053
B          1.85987        2.48382       -0.36526
B          3.19315        1.59787       -0.28927
B          4.48872        0.67932        0.23654
B          4.56349        2.32425        0.53830
B          3.24634        3.19339        0.26661
B          1.95719        4.14555        0.30515
B          0.51054        3.51394       -0.38539
B          0.58953        4.84980        0.48753
B         -2.30071        3.59341        0.09047
B         -0.88450        4.37221        0.26553
B         -2.41179        1.96839       -0.41101
B         -3.68927        2.73085        0.24669
B         -3.86779        1.17702       -0.32439
B         -1.01417        2.83553       -0.56924
B         -1.40509       -2.56118       -0.76042
B          3.16329       -0.12686       -0.62416
B         -0.92664        1.18632       -0.85776
B          4.23765       -2.57890        0.64691
B         -5.23829       -1.38976        0.59311
B         -5.09916        0.28753        0.40111
B         -4.95909        1.99485        0.72580
B         -6.13783        1.11463        1.33988
B         -6.26665       -0.38044        1.29885
B          1.75115        0.83717       -0.94112
B         -1.08728       -2.84569        0.85600
B          0.22513       -1.74211       -1.01289
B          5.56420       -1.81394        0.89852
B          5.83440       -0.22121        0.89060
B          5.77188        1.36110        0.85513
B         -0.40428       -0.14179       -0.92811
