45
isomer_2827.log	Energy: -112133.5487013
B          2.54256        1.75288       -0.42975
B          2.52136        3.39091       -0.05025
B          1.10808        4.21086        0.18876
B         -0.34126        3.36789       -0.36481
B          1.09040        0.85035       -0.73887
B         -1.78424        0.85906       -0.83148
B         -1.73891        4.14352        0.32025
B          4.00730        0.88937       -0.35221
B         -1.71803        2.46410       -0.27121
B          3.93433        2.58103        0.10384
B         -0.31925        4.81745        0.46303
B         -3.16469        3.28621        0.33135
B         -3.17803        1.66443       -0.23461
B         -4.63307        0.84128        0.25869
B         -0.33138       -1.68676       -0.89347
B         -1.71045       -2.39162       -0.27051
B         -3.17294       -1.59651       -0.23414
B         -4.63054       -0.77776        0.25893
B         -4.46113       -2.33511        0.50479
B         -3.15453       -3.21807        0.33230
B         -1.72608       -4.07093        0.32145
B         -0.33086       -3.29114       -0.36383
B         -0.30433       -4.74038        0.46442
B          2.53181       -3.30513       -0.04927
B          1.12110       -4.12942        0.18997
B          2.54790       -1.66715       -0.42925
B          3.94225       -2.49079        0.10458
B          4.00994       -0.79905       -0.35196
B          1.11946       -2.49369       -0.59530
B          1.11155        2.57491       -0.59604
B         -3.25799        0.13377       -0.63123
B          1.09293       -0.76924       -0.73864
B         -4.46853        2.39922        0.50410
B          5.25860        1.77842        0.61126
B          5.25885        0.14722        0.37757
B          5.26401       -1.68391        0.61177
B          6.42635       -0.72720        1.21671
B          6.42392        0.82552        1.21649
B         -1.78166       -0.78696       -0.83124
B          2.99602       -0.38405       -0.38826
B         -0.33677        1.76336       -0.89397
B         -5.97654        1.68585        0.71467
B         -6.16908       -0.02768        0.77945
B         -5.96862       -1.75735        0.78578
B          0.35018       -1.29769       -0.11986
