45
isomer_0283.log	Energy: -113458.7447956
B          2.54932        1.66175       -0.63481
B          2.53775        3.38245       -0.05375
B          1.18887        4.14655        0.02200
B         -0.27437        3.43648       -0.65168
B          1.20231        0.93724       -1.06898
B         -1.74977        0.92392       -0.98583
B         -1.64803        4.15841        0.20064
B          3.90673        0.91331       -0.15452
B         -1.71016        2.56939       -0.47594
B          3.79830        2.51452        0.20164
B         -0.22435        4.70728        0.31750
B         -3.01612        3.32209        0.26895
B         -3.08807        1.74627       -0.22341
B         -4.36105        0.78774        0.39689
B         -0.28811       -1.73548       -1.45992
B         -1.40716       -2.41341       -0.04547
B         -2.99972       -1.71896       -0.10870
B         -4.46222       -0.86790        0.10808
B         -4.20788       -2.50229        0.76403
B         -2.87256       -3.28603        0.30375
B         -1.55485       -4.14072        0.00963
B         -0.23215       -3.33142       -0.94027
B         -0.18027       -4.71655       -0.07539
B          2.52443       -3.31365        0.04827
B          1.22658       -4.12562       -0.18749
B          2.56870       -1.60820       -0.43878
B          3.80557       -2.45243        0.31106
B          3.89426       -0.85286       -0.10452
B          1.08729       -2.40826       -0.26044
B          1.20103        2.57717       -0.74466
B         -3.15023       -0.00042       -0.50104
B          1.21717       -0.74036       -0.83390
B         -4.33572        2.46455        0.76382
B          5.09272        1.69067        0.77167
B          5.15309        0.03679        0.44850
B          5.11911       -1.60864        0.86837
B          6.13241       -0.69885        1.55515
B          6.12642        0.79779        1.52106
B         -1.57964       -0.75432       -0.52009
B         -0.09898       -1.25353        0.23213
B         -0.32633        1.81902       -1.20968
B         -5.42979        1.53625        1.27697
B         -5.57420       -0.04094        1.27022
B         -5.31317       -1.56289        1.26369
B         -0.24715        0.00409       -1.24480
