45
isomer_2832.log	Energy: -112473.2061526
B          2.61373       -1.65277        0.35575
B          2.61098       -3.28418       -0.05181
B          1.20698       -4.11608       -0.30388
B         -0.25143       -3.29942        0.26509
B          1.15160       -0.77241        0.68135
B         -1.72266       -0.81571        0.77579
B         -1.64071       -4.07918       -0.43222
B          4.06841       -0.77129        0.29204
B         -1.63856       -2.41003        0.18799
B          4.01443       -2.45560       -0.19295
B         -0.21354       -4.73421       -0.58754
B         -3.07623       -3.23822       -0.42760
B         -3.10766       -1.62666        0.16615
B         -4.57249       -0.81192       -0.31193
B         -0.29904        1.74518        0.88049
B         -1.68666        2.44476        0.27069
B         -3.13996        1.63365        0.22168
B         -4.58852        0.80681       -0.28436
B         -4.43720        2.36999       -0.50355
B         -3.14066        3.26480       -0.31682
B         -1.72207        4.13369       -0.29232
B         -0.31739        3.35832        0.37850
B         -0.30822        4.82178       -0.42477
B          2.54466        3.41057        0.06223
B          1.12437        4.22260       -0.16184
B          2.57986        1.76660        0.41400
B          3.96420        2.61524       -0.10657
B          4.05169        0.91679        0.32079
B          1.14219        2.57372        0.59522
B          1.19239       -2.49391        0.50890
B         -3.20482       -0.10406        0.58905
B          1.13556        0.84687        0.70893
B         -4.39031       -2.36343       -0.58418
B          5.32896       -1.62925       -0.68743
B          5.31072       -0.00241       -0.42576
B          5.29467        1.83241       -0.62847
B          6.46736        0.89963       -1.25057
B          6.48274       -0.65279       -1.27701
B         -1.73897        0.83000        0.80382
B          0.71225       -1.82227        2.14697
B         -0.26487       -1.70427        0.82173
B         -5.90659       -1.66391       -0.78141
B         -6.11882        0.04816       -0.81661
B         -5.93821        1.77987       -0.79337
B          0.42783        0.18255        0.19580
