45
isomer_2833.log	Energy: -112737.8910811
B         -2.59454       -1.67579       -0.46206
B         -2.69063       -3.44961       -0.07879
B         -1.14046       -4.25227        0.16178
B          0.31777       -3.41410       -0.41774
B         -1.05413       -0.99853       -0.85931
B          1.76242       -0.84358       -0.88667
B          1.69074       -4.17261        0.27427
B         -4.01097       -0.71204       -0.39765
B          1.69665       -2.49685       -0.32886
B         -3.99450       -2.43936        0.06268
B          0.30046       -4.80797        0.41260
B          3.09766       -3.29901        0.29261
B          3.14326       -1.67582       -0.25719
B          4.57155       -0.82463        0.26017
B          0.35026        1.94921       -0.88830
B          1.74473        2.54327       -0.27009
B          3.17110        1.68973       -0.23247
B          4.56817        0.81563        0.26074
B          4.47173        2.39476        0.54591
B          3.16056        3.30049        0.34559
B          1.77650        4.21175        0.34173
B          0.38209        3.50928       -0.34922
B          0.39647        4.88976        0.47392
B         -2.45402        3.58130       -0.04701
B         -1.04615        4.38246        0.19830
B         -2.51547        1.94741       -0.45126
B         -3.87305        2.70923        0.08904
B         -3.96972        1.05534       -0.38861
B         -1.07276        2.79147       -0.59262
B         -1.11402       -2.63227       -0.64846
B          3.25023       -0.07739       -0.64071
B         -1.07976        1.18078       -0.74959
B          4.44728       -2.41645        0.51293
B         -5.24703       -1.54409        0.55700
B         -5.19865        0.10830        0.31892
B         -5.15759        1.90404        0.56102
B         -6.28821        0.96757        1.14350
B         -6.35777       -0.53306        1.15753
B          1.78124        0.90269       -0.85703
B         -1.90071       -2.70057        0.89130
B          0.34535       -1.82920       -0.96961
B          5.82460       -1.60121        0.72055
B          6.00100        0.01790        0.78173
B          5.82695        1.64274        0.79201
B         -1.31860       -0.09870       -0.38258
