45
isomer_2834.log	Energy: -113409.2893072
B         -2.56768        1.68832        0.49472
B         -2.58987        3.40502        0.04647
B         -1.21900        4.18504        0.01426
B          0.25899        3.43262        0.65111
B         -1.20811        0.87391        0.78658
B          1.69414        0.90683        0.85812
B          1.64177        4.18486       -0.17816
B         -3.94904        0.91426        0.19899
B          1.67271        2.55154        0.39167
B         -3.90065        2.52968       -0.15851
B          0.20437        4.74986       -0.24514
B          2.99896        3.34413       -0.26579
B          3.08136        1.74739        0.22104
B          4.45172        0.83841       -0.23985
B          0.30779       -1.81229        1.58766
B          1.55702       -2.41640        0.26401
B          3.04249       -1.67935        0.12182
B          4.47211       -0.82871       -0.23391
B          4.26764       -2.46486       -0.78351
B          2.91539       -3.25400       -0.38915
B          1.55905       -4.12351       -0.23652
B          0.23141       -3.30682        0.63659
B          0.16189       -4.71527       -0.19775
B         -2.58173       -3.30594        0.09944
B         -1.23222       -4.13934        0.06977
B         -2.58938       -1.59756        0.48023
B         -3.85036       -2.45604       -0.18144
B         -3.92488       -0.81674        0.15755
B         -1.20477       -2.49284        0.72032
B         -1.22475        2.55650        0.61760
B          3.16844        0.01174        0.47967
B         -1.16269       -0.81244        0.89171
B          4.36569        2.49944       -0.67242
B         -5.16858        1.70731       -0.76445
B         -5.06227        0.04271       -0.61077
B         -5.12296       -1.61532       -0.83080
B         -6.14539       -0.71718       -1.56523
B         -6.18105        0.79435       -1.52285
B          1.64272       -0.79830        0.76535
B          0.26052       -0.02921        1.30207
B          0.26184        1.77538        1.00410
B          5.47495        1.58711       -1.18223
B          5.63299       -0.00016       -1.22727
B          5.41940       -1.54323       -1.27801
B          0.14001       -1.40088       -0.09709
