45
isomer_2838.log	Energy: -113522.9963360
B          2.44128       -1.84093        0.64982
B          2.19264       -3.05717       -0.50370
B          0.82153       -3.77415       -0.64907
B         -0.33590       -3.36183        0.64214
B          1.05133       -0.85103        0.85508
B         -1.79162       -0.76328        0.73492
B         -1.97876       -4.06251       -0.16849
B          3.93139       -0.95500        0.29429
B         -1.81520       -2.48917        0.38471
B          3.67827       -2.40359       -0.46278
B         -0.62059       -4.32455       -0.69386
B         -3.27215       -3.19885       -0.07460
B         -3.23639       -1.58968        0.34930
B         -4.62177       -0.64531       -0.00888
B         -0.28347        1.66100        0.74689
B         -1.65369        2.49701        0.23400
B         -3.14855        1.80734        0.19958
B         -4.63850        1.02297        0.16264
B         -4.39395        2.65149       -0.58423
B         -3.00401        3.38448       -0.31231
B         -1.56262        4.14834       -0.41980
B         -0.21495        3.34861        0.26235
B         -0.12787        4.70394       -0.54128
B          2.64396        3.27807        0.06701
B          1.26086        4.09093       -0.18229
B          2.63437        1.67857        0.60959
B          4.01190        2.45810       -0.01132
B          4.03923        0.78748        0.46926
B          1.22480        2.49409        0.55587
B          0.71935       -2.07704       -0.41452
B         -3.26128        0.13999        0.66365
B          1.14386        0.81290        0.89454
B         -4.59891       -2.28493       -0.47122
B          5.04657       -1.70700       -0.77367
B          5.33405       -0.09278       -0.17907
B          5.29445        1.62223       -0.43670
B          6.32372        0.70144       -1.17160
B          6.19443       -0.77999       -1.35324
B         -1.66077        0.84170        0.57222
B          2.58847       -0.03254        0.83346
B         -0.39601       -1.62169        0.87543
B         -5.72518       -1.36673       -0.89099
B         -5.84299        0.21106       -0.89092
B         -5.52584        1.70398       -0.99766
B          1.13453       -2.76593        1.13546
