45
isomer_0284.log	Energy: -113458.2566635
B         -2.55568        1.73088        0.65990
B         -2.46983        3.41450       -0.09105
B         -1.09118        4.15973       -0.19746
B          0.33174        3.36807        0.39670
B         -1.22474        0.93827        1.04519
B          1.74042        0.85483        0.85810
B          1.76496        4.13474       -0.21303
B         -3.93590        0.98858        0.21691
B          1.80228        2.54611        0.60240
B         -3.74151        2.56351       -0.26944
B          0.35331        4.72142       -0.42050
B          3.11773        3.28300       -0.16148
B          3.15144        1.67625        0.28713
B          4.54967        0.73747        0.00532
B          0.29161       -1.81332        1.48225
B          1.34499       -2.34989       -0.15288
B          2.97264       -1.80142        0.18595
B          4.32358       -0.87221       -0.36153
B          4.16693       -2.51327       -0.85608
B          2.80345       -3.27292       -0.45514
B          1.46854       -4.09810       -0.23414
B          0.19820       -3.32326        0.78022
B          0.07862       -4.64407       -0.18155
B         -2.62259       -3.24412       -0.00910
B         -1.32068       -4.06089        0.05381
B         -2.64334       -1.53931        0.56690
B         -3.90225       -2.35477       -0.18853
B         -3.98369       -0.78073        0.27746
B         -1.19154       -2.38534        0.38332
B         -1.14693        2.50975        0.41981
B          3.18250       -0.08094        0.59022
B         -1.22174       -0.75522        0.92295
B          4.45099        2.41867       -0.53563
B         -5.06125        1.74065       -0.78599
B         -5.21874        0.12966       -0.32886
B         -5.22787       -1.53340       -0.69798
B         -6.22459       -0.64536       -1.40916
B         -6.12064        0.83868       -1.49469
B          1.67693       -0.91935        0.97198
B          0.24983        0.00480        1.08451
B          0.32463        1.78456        0.96841
B          5.47519        1.45187       -1.08098
B          5.61153       -0.10806       -1.18233
B          5.36211       -1.63915       -1.27340
B          0.11086       -1.26089       -0.17850
