45
isomer_2840.log	Energy: -113675.8865959
B         -2.56216       -1.73098       -0.52925
B         -2.51205       -3.30415        0.03735
B         -1.15475       -4.14921        0.10935
B          0.27043       -3.40291       -0.53881
B         -1.16950       -0.85102       -1.06877
B          1.71858       -0.84318       -0.79030
B          1.64363       -4.16914        0.25831
B         -3.98363       -0.84648       -0.22431
B          1.72588       -2.55086       -0.43212
B         -3.86849       -2.48586        0.27663
B          0.22187       -4.74801        0.35317
B          3.00980       -3.33931        0.27856
B          3.12969       -1.73235       -0.22135
B          4.54673       -0.89241        0.14679
B          0.36819        1.82532       -1.11679
B          1.80086        2.53286       -0.48785
B          3.17256        1.68115       -0.25941
B          4.53245        0.79956        0.23604
B          4.40566        2.44529        0.75000
B          3.09035        3.28124        0.26668
B          1.74628        4.14456        0.24656
B          0.34961        3.38497       -0.51474
B          0.33967        4.74586        0.35213
B         -2.42887        3.33411        0.03974
B         -1.04919        4.15699        0.12275
B         -2.51002        1.75936       -0.48920
B         -3.81085        2.53642        0.29216
B         -3.95687        0.90934       -0.21574
B         -1.12031        2.58967       -0.76589
B         -1.18465       -2.57789       -0.78874
B          3.29364       -0.01540       -0.60902
B         -1.13067        0.84847       -1.04287
B          4.32764       -2.49849        0.77044
B         -5.10356       -1.65317        0.84608
B         -5.19541        0.04300        0.52320
B         -5.06149        1.73744        0.86424
B         -6.08476        0.81239        1.61282
B         -6.10415       -0.70844        1.60628
B          1.78500        0.83060       -0.90996
B         -2.60991        0.01559       -0.74586
B          0.34263       -0.00288       -1.09479
B          5.37475       -1.56876        1.33797
B          5.61986       -0.03216        1.30475
B          5.47175        1.51959        1.30228
B          0.31376       -1.83072       -1.08851
