45
isomer_2841.log	Energy: -113435.9301383
B          2.46155       -1.50853        0.25272
B          2.74006       -3.55871        0.10073
B          1.20690       -3.96135       -0.27946
B         -0.32482       -3.30060        0.53959
B          1.01253       -0.67474        0.90861
B         -1.79774       -0.77096        0.86189
B         -1.67604       -4.08276       -0.16536
B          3.95654       -0.73640        0.41221
B         -1.77686       -2.47309        0.52222
B          3.81506       -2.44484       -0.24581
B         -0.26016       -4.54627       -0.45854
B         -3.10693       -3.28253       -0.10833
B         -3.21351       -1.72206        0.33970
B         -4.61825       -0.82246       -0.06392
B         -0.42057        1.73451        0.84492
B         -1.84021        2.49721        0.35637
B         -3.28637        1.71079        0.21196
B         -4.73424        0.82595        0.12682
B         -4.57261        2.44187       -0.60860
B         -3.19880        3.25270       -0.32597
B         -1.80759        4.09845       -0.42929
B         -0.42628        3.38800        0.28976
B         -0.40767        4.70342       -0.59537
B          2.42662        3.40103       -0.01154
B          1.00721        4.15667       -0.26421
B          2.51377        1.85414        0.55585
B          3.87812        2.62824       -0.09924
B          3.94881        0.99796        0.45199
B          1.06486        2.60727        0.53182
B          0.95926       -2.27057        0.18491
B         -3.31977        0.03048        0.64646
B          1.01888        0.90465        0.93292
B         -4.49844       -2.49117       -0.49497
B          5.13333       -1.52600       -0.59695
B          5.24400        0.11917       -0.17158
B          5.18118        1.86952       -0.49904
B          6.24067        0.94183       -1.15239
B          6.23338       -0.57958       -1.20916
B         -1.77815        0.83579        0.72683
B          2.09636       -2.56628       -0.94954
B         -0.39390       -1.59429        0.97554
B         -5.67235       -1.61780       -0.93374
B         -5.87885       -0.06494       -0.94818
B         -5.66472        1.46474       -1.01691
B          2.53568        0.13153        0.85428
