45
isomer_2843.log	Energy: -113434.6941749
B          2.60304       -1.63191        0.67669
B          2.51876       -3.23834        0.05826
B          1.16585       -4.11598       -0.04722
B         -0.30895       -3.37732        0.49261
B          1.12983       -0.83952        1.03589
B         -1.56597       -0.74887        0.09669
B         -1.64064       -4.14507       -0.34727
B          4.01975       -0.80050        0.41931
B         -1.70059       -2.50564        0.27584
B          3.87781       -2.36303       -0.14810
B         -0.22721       -4.71975       -0.36883
B         -3.05031       -3.30215       -0.37266
B         -3.07170       -1.69256       -0.05972
B         -4.54016       -0.82493       -0.01415
B         -0.25473        1.63870        0.62899
B         -1.68562        2.49243        0.51810
B         -3.12124        1.75473        0.40484
B         -4.40416        0.83320       -0.26144
B         -4.42546        2.53096       -0.45746
B         -3.00982        3.29983       -0.11486
B         -1.62417        4.18672       -0.11689
B         -0.24228        3.26401        0.20039
B         -0.20878        4.77121       -0.26806
B          2.59488        3.26266       -0.08242
B          1.21496        4.10223       -0.17967
B          2.66832        1.58056        0.35941
B          3.99445        2.41814       -0.25446
B          4.10081        0.87426        0.40974
B          1.27465        2.45391        0.32952
B          1.21149       -2.55780        0.68061
B         -3.13191       -0.00835        0.47232
B          1.21043        0.69447        0.59581
B         -4.42262       -2.46952       -0.70986
B          5.15241       -1.65722       -0.67857
B          5.31286       -0.00555       -0.33701
B          5.28779        1.67146       -0.69189
B          6.39191        0.71845       -1.29590
B          6.30415       -0.76854       -1.33143
B         -1.69293        0.75613        1.08374
B         -0.32654       -0.07659        1.58082
B         -0.35468       -1.73448        0.93829
B         -5.51367       -1.48277       -1.07655
B         -5.74310        0.07618       -0.98202
B         -5.58903        1.64381       -0.90612
B         -0.17791        0.04231       -0.15532
