45
isomer_2844.log	Energy: -113468.0352025
B         -2.32284        2.00124        0.43019
B         -2.10004        3.50685       -0.19212
B         -0.63033        4.21784       -0.26357
B          0.69685        3.36028        0.39083
B         -0.93157        0.93937        0.89614
B          1.87496        0.72780        0.79865
B          2.17298        4.02179       -0.19556
B         -3.77539        1.22818        0.09157
B          2.07116        2.39987        0.53242
B         -3.58396        2.84837       -0.37272
B          0.81832        4.71238       -0.43607
B          3.48937        3.09437       -0.07640
B          3.45262        1.50983        0.38118
B          4.81656        0.52291        0.18866
B          0.26525       -1.62707        1.02422
B          1.52451       -2.43501        0.19121
B          3.02750       -1.84537        0.12731
B          4.50230       -1.06300       -0.23783
B          4.20921       -2.64291       -0.84459
B          2.74984       -3.33772       -0.50179
B          1.28405       -4.03392       -0.47930
B          0.05300       -3.22649        0.38567
B         -0.16865       -4.54750       -0.47744
B         -2.81067       -3.07479       -0.63532
B         -1.53120       -3.91038       -0.08582
B         -2.67246       -1.50118        0.69785
B         -3.99447       -2.18378       -0.21013
B         -3.93693       -0.48112        0.26744
B         -1.27798       -2.39280        1.04806
B         -0.82943        2.63023        0.47012
B          3.34251       -0.19337        0.66870
B         -1.06077       -0.64976        0.95007
B          4.79037        2.19679       -0.41515
B         -4.93676        2.14685       -0.78181
B         -5.23106        0.45333       -0.24987
B         -5.27865       -1.23775       -0.55396
B         -6.23129       -0.25741       -1.28792
B         -6.04333        1.24997       -1.40656
B          1.72470       -0.87126        0.87233
B         -2.71866       -3.13704        0.92787
B          0.56507        1.69213        0.87410
B          5.77488        1.16616       -0.93828
B          5.85072       -0.36464       -1.03631
B          5.47598       -1.87358       -1.19407
B         -2.46627        0.26131        0.65801
