45
isomer_2846.log	Energy: -113453.1582595
B         -1.84043        1.71002        0.04049
B         -1.45200        3.29641       -0.70312
B         -0.13923        4.07410       -0.38273
B          0.98908        3.34613        0.67799
B         -1.05406        1.23537        1.49253
B          1.69517        0.55147        0.98646
B          2.54993        3.80269        0.09490
B         -3.33258        1.27982       -0.35119
B          2.18961        2.18825        0.88151
B         -2.79990        2.62296       -1.11649
B          1.32656        4.56323       -0.31619
B          3.67415        2.68412        0.21649
B          3.37330        1.12579        0.49284
B          4.47799       -0.01030       -0.10810
B          0.09105       -0.07233        1.36399
B          0.86744       -2.38038       -0.28778
B          2.49367       -2.09822       -0.11032
B          4.10635       -1.64485       -0.31811
B          3.50097       -3.02862       -1.16977
B          2.00651       -3.52114       -0.81833
B          0.54768       -4.08097       -0.43011
B         -0.57692       -2.96138        0.28434
B         -0.88500       -4.47254       -0.01661
B         -3.19961       -2.67549        1.00812
B         -2.08306       -3.58745        0.51241
B         -2.91596       -0.87130        1.47652
B         -4.29794       -1.76446        0.68437
B         -3.89994       -0.18776        0.39817
B         -1.67306       -1.84086        0.98569
B         -0.62586        2.70854        0.61255
B          2.99767       -0.58020        0.50546
B         -1.71430       -0.00769        0.31499
B          4.81476        1.62548       -0.33245
B         -4.16938        1.96462       -1.69818
B         -4.69336        0.56154       -0.83571
B         -5.22799       -0.95991       -0.41652
B         -5.84462       -0.21897       -1.64067
B         -5.35283        1.12251       -2.20846
B          1.31479       -0.97008        0.52567
B         -1.46570       -0.35339        2.03927
B          0.63088        1.78757        1.34277
B          5.71110        0.54563       -0.92648
B          5.45014       -0.95443       -1.22017
B          4.82642       -2.33923       -1.53519
B         -0.39151       -1.21430        0.00512
