45
isomer_2848.log	Energy: -113473.5830753
B          2.63574       -1.41150        0.53782
B          2.82068       -3.09051        0.40391
B          1.65836       -3.94144       -0.16445
B          0.05830       -3.15391        0.34326
B          1.07093       -0.85562        0.29183
B         -1.75400       -0.93564        1.07736
B         -1.16959       -3.71901       -0.79559
B          4.02900       -0.51183        0.47724
B         -1.53442       -2.48251        0.32110
B          4.14453       -2.11849        0.16663
B          0.37959       -3.98164       -1.00509
B         -2.66349       -3.24501       -0.61019
B         -3.00484       -1.80163        0.20556
B         -4.40374       -0.99785       -0.24501
B         -0.44384        1.66234        0.77386
B         -1.96692        2.40062        0.54911
B         -3.39148        1.55959        0.50882
B         -4.77591        0.55004        0.31421
B         -4.68518        2.24989       -0.30057
B         -3.39854        3.13900       -0.04963
B         -2.02990        3.98347       -0.22557
B         -0.55926        3.30427        0.34760
B         -0.65054        4.57388       -0.58896
B          2.24520        3.39263       -0.31152
B          0.83802        4.09415       -0.43153
B          2.42000        1.74216        0.30752
B          3.67947        2.61100       -0.43795
B          3.90304        1.16030        0.34988
B          0.96108        2.49480        0.12242
B          1.37867       -2.30962       -0.55509
B         -3.35087       -0.20172        0.82772
B          1.04228        0.81019        0.48369
B         -4.16335       -2.56076       -0.87761
B          5.36627       -1.30499       -0.34783
B          5.30571        0.39518       -0.14377
B          5.11495        2.01297       -0.66061
B          6.37641        1.16224       -1.07201
B          6.45907       -0.32270       -0.98825
B         -1.88686        0.76389        0.88446
B          1.38678       -2.43624        1.25271
B         -0.18855       -1.74859        1.24227
B         -5.43209       -1.81319       -1.16502
B         -5.81072       -0.29189       -0.93799
B         -5.70224        1.21132       -0.81965
B         -0.30774       -0.03764        0.94493
