45
isomer_2849.log	Energy: -113252.5678679
B          2.65416       -1.58578        0.49739
B          2.60590       -3.29555        0.05480
B          1.21582       -4.07037       -0.14320
B         -0.25198       -3.36067        0.24326
B          1.20613       -0.73115        0.81241
B         -1.70969       -0.81074        0.90280
B         -1.64873       -4.11430       -0.37550
B          4.02665       -0.78887        0.39596
B         -1.63527       -2.39350        0.11203
B          3.98069       -2.43246       -0.05989
B         -0.21388       -4.78046       -0.41804
B         -3.02433       -3.25179       -0.35025
B         -3.10405       -1.65569        0.19868
B         -4.49809       -0.80824       -0.16112
B         -0.32214        1.78930        0.93151
B         -1.71847        2.54319        0.24948
B         -3.14052        1.73043        0.24812
B         -4.51844        0.85595       -0.10084
B         -4.47668        2.48656       -0.61895
B         -3.03915        3.28627       -0.37353
B         -1.64942        4.11854       -0.41620
B         -0.27049        3.43413        0.40785
B         -0.19910        4.67335       -0.56134
B          2.62155        3.37114       -0.00486
B          1.23382        4.15383       -0.20099
B          2.61758        1.69660        0.43931
B          3.97999        2.46226       -0.24396
B          4.05092        0.88689        0.34563
B          1.25775        2.65329        0.55397
B          1.25697       -2.46114        0.50174
B         -3.24744        0.02048        0.64037
B          1.21548        0.95241        0.77718
B         -4.45083       -2.49000       -0.53992
B          5.26129       -1.68902       -0.60933
B          5.26421        0.00116       -0.39707
B          5.24516        1.68140       -0.70442
B          6.38652        0.71586       -1.29011
B          6.38138       -0.77657       -1.24119
B         -1.71974        0.89930        0.87307
B         -0.14138        0.22374        1.43837
B         -0.29414       -1.38485        1.28269
B         -5.65231       -1.57372       -0.90487
B         -5.83123       -0.01595       -0.92471
B         -5.62786        1.55883       -0.98374
B         -0.07660       -1.72412       -0.28259
