45
isomer_0285.log	Energy: -111736.3706297
B         -2.65665        1.69893        0.43758
B         -2.65747        3.33979        0.06992
B         -1.25557        4.17885       -0.16977
B          0.20669        3.34988        0.37082
B         -1.19202        0.81220        0.73328
B          1.68270        0.85577        0.81241
B          1.59137        4.14765       -0.31515
B         -4.11100        0.81796        0.36065
B          1.59404        2.46387        0.26416
B         -4.06107        2.51364       -0.08341
B          0.16285        4.80500       -0.44633
B          3.02754        3.30813       -0.33920
B          3.06358        1.68260        0.21487
B          4.52628        0.88108       -0.29126
B          0.26165       -1.70819        0.86271
B          1.64630       -2.39144        0.22815
B          3.09868       -1.57807        0.19068
B          4.54370       -0.73783       -0.30327
B          4.39232       -2.29534       -0.55966
B          3.09754       -3.19560       -0.38745
B          1.67979       -4.06611       -0.37608
B          0.27836       -3.30858        0.32142
B          0.26572       -4.75203       -0.51723
B         -2.58540       -3.35568        0.02025
B         -1.16580       -4.16073       -0.23163
B         -2.61984       -1.72082        0.41221
B         -4.00648       -2.55775       -0.12103
B         -4.09283       -0.87031        0.34813
B         -1.18055       -2.53082        0.56551
B         -1.23510        2.53736        0.60311
B          3.16431        0.15022        0.59995
B         -1.17459       -0.80725        0.72127
B          4.34137        2.43860       -0.52455
B         -5.37777        1.69842       -0.59042
B         -5.35679        0.06569       -0.36861
B         -5.34051       -1.76363       -0.61610
B         -6.51744       -0.81701       -1.20859
B         -6.53415        0.73558       -1.19707
B          1.70042       -0.79011        0.80020
B         -0.12596        0.65871       -0.08569
B          0.22452        1.74164        0.88830
B          5.85703        1.74546       -0.74740
B          6.07036        0.03495       -0.82555
B          5.89121       -1.69697       -0.84353
B          0.87865       -1.55773        1.32339
