45
isomer_2850.log	Energy: -113335.4758585
B          2.54430       -1.68458        0.49097
B          2.53428       -3.39030       -0.02746
B          1.17477       -4.19404       -0.15041
B         -0.26491       -3.39632        0.40168
B          1.21735       -0.77824        0.86521
B         -1.64615       -0.82555        0.71342
B         -1.66785       -4.18219       -0.28370
B          3.90021       -0.90008        0.26510
B         -1.65654       -2.52949        0.27254
B          3.83844       -2.51683       -0.20470
B         -0.24150       -4.76430       -0.42315
B         -3.04835       -3.29989       -0.25705
B         -3.06383       -1.70664        0.19566
B         -4.46045       -0.81575       -0.20794
B         -0.27670        1.78594        1.00435
B         -1.65479        2.52030        0.25885
B         -3.04829        1.70966        0.15875
B         -4.42167        0.83271       -0.24323
B         -4.39366        2.49437       -0.68872
B         -2.97891        3.29540       -0.40917
B         -1.58926        4.13510       -0.41177
B         -0.23016        3.37918        0.39531
B         -0.16182        4.69782       -0.48752
B          2.58813        3.31696        0.01816
B          1.24250        4.10795       -0.12757
B          2.51208        1.57294        0.59950
B          3.84456        2.42378       -0.12324
B          3.91243        0.81496        0.28646
B          1.23997        2.53585        0.69245
B          1.20809       -2.57775        0.59895
B         -3.15809        0.00308        0.50836
B          1.24437        0.90894        1.52502
B         -4.47174       -2.49273       -0.49861
B          5.13549       -1.69779       -0.73266
B          5.09450       -0.05663       -0.44510
B          5.12239        1.59258       -0.68922
B          6.14896        0.70750       -1.43011
B          6.15644       -0.79746       -1.44578
B         -1.65282        0.85042        0.79213
B          0.95153        0.68687       -0.08348
B         -0.25586       -1.77006        0.83739
B         -5.65795       -1.57683       -0.86598
B         -5.79426        0.00009       -0.93782
B         -5.56922        1.57862       -1.01812
B         -0.24600        0.00237        1.31226
