45
isomer_2853.log	Energy: -113556.8468028
B         -2.45332       -1.54322       -0.69229
B         -2.18549       -3.13365        0.01339
B         -1.34074       -4.18840       -0.80353
B         -0.42519       -3.02994        0.20908
B         -1.09752       -0.66379       -1.38975
B          1.49552       -0.79100       -0.71084
B          1.24691       -4.08929       -0.04083
B         -3.66462       -0.67300        0.05044
B          1.10602       -2.35072        0.09445
B         -3.48733       -2.25153        0.48789
B          0.03882       -4.80731       -0.56856
B          2.50899       -3.27696        0.55513
B          2.69194       -1.73948        0.14801
B          4.15390       -0.93776        0.60565
B          0.42250        1.80242       -1.17942
B          1.85443        2.52076       -0.67639
B          3.16241        1.62298       -0.23030
B          4.47310        0.64675        0.16666
B          4.42631        2.36065        0.63354
B          3.21897        3.26028        0.03282
B          1.92206        4.19099       -0.05908
B          0.49221        3.49009       -0.78580
B          0.55283        4.86693        0.02574
B         -2.26103        3.49159       -0.11617
B         -0.86357        4.30801       -0.17799
B         -2.42628        1.92882       -0.72703
B         -3.60274        2.74019        0.28926
B         -3.66743        1.06883        0.04015
B         -1.01737        2.71733       -0.95514
B         -1.25195       -2.44966       -1.40335
B          3.03898       -0.10134       -0.40834
B         -1.06815        0.99676       -1.35663
B          3.82498       -2.54427        1.15887
B         -4.66582       -1.47102        1.22594
B         -4.90647        0.21585        0.80824
B         -4.71296        1.93065        1.09130
B         -5.49631        0.99271        2.08385
B         -5.50673       -0.51629        2.12075
B          1.61995        0.83199       -0.70476
B         -2.34772        0.20107       -0.65750
B          0.27118       -1.68315       -1.27933
B          5.01772       -1.71409        1.66206
B          5.38085       -0.19326        1.51272
B          5.31767        1.34335        1.33633
B          0.21046       -3.37987       -1.42923
