45
isomer_2854.log	Energy: -113337.6101305
B         -2.94819       -1.65748       -0.75576
B         -2.99086       -3.18757        0.24903
B         -1.69623       -4.05221        0.28049
B         -0.22402       -3.38743       -0.56847
B         -1.17022       -0.30210       -1.55625
B          1.46792       -0.89019       -0.85176
B          1.08656       -4.15742        0.34155
B         -3.95486       -0.57465       -0.08536
B          1.18511       -2.50129       -0.47151
B         -4.08107       -2.12535        0.43905
B         -0.30384       -4.62733        0.51196
B          2.46083       -3.47848        0.30346
B          2.73599       -1.93398       -0.18174
B          4.27268       -1.25820        0.28073
B          0.66106        1.99224       -1.29604
B          2.07124        2.45937       -0.51999
B          3.30899        1.45104       -0.21416
B          4.50301        0.37853        0.34961
B          4.60740        2.02821        0.82020
B          3.40585        3.02574        0.32053
B          2.16832        4.04616        0.31600
B          0.74027        3.48075       -0.56615
B          0.83806        4.75110        0.42218
B         -1.99059        3.56305        0.02985
B         -0.60174        4.29539        0.12676
B         -2.21482        1.90413       -0.64298
B         -3.28760        2.78047        0.32735
B         -3.60781        1.21002       -0.05544
B         -0.81044        2.85416       -0.90597
B         -1.82077       -2.92851       -0.92480
B          3.18030       -0.27093       -0.52225
B         -0.95075        1.25092       -1.38925
B          3.82131       -2.81418        0.82947
B         -5.14145       -1.10431        1.08668
B         -4.93245        0.50847        0.64617
B         -4.57845        2.10735        1.04603
B         -5.65301        1.39044        1.87375
B         -5.89990       -0.06008        1.89493
B          1.87010        0.76143       -0.97619
B         -1.77182       -1.62533       -1.80235
B         -0.11111       -1.83882       -1.28857
B          5.01520       -2.06589        1.44495
B          5.46820       -0.57829        1.43159
B          5.55274        0.98739        1.38478
B          0.32087        0.19364       -1.18214
