45
isomer_2858.log	Energy: -113446.4490883
B         -2.48798       -1.72231       -0.48797
B         -2.46486       -3.41267        0.07062
B         -1.09007       -4.14561        0.17850
B          0.33485       -3.39285       -0.45186
B         -1.20808       -0.96562       -1.05223
B          1.77553       -0.86175       -1.01337
B          1.74672       -4.09487        0.29146
B         -3.84435       -0.96866       -0.04546
B          1.77563       -2.50841       -0.47275
B         -3.77227       -2.58331        0.28269
B          0.33817       -4.69107        0.45937
B          3.09954       -3.24242        0.23846
B          3.15078       -1.66135       -0.28719
B          4.47595       -0.70320        0.14905
B          0.29569        1.79226       -1.44480
B          1.32699        2.24182        0.33854
B          2.95611        1.76710       -0.14526
B          4.45928        0.94856        0.06546
B          4.15006        2.51058        0.83553
B          2.75836        3.22633        0.53969
B          1.42997        4.06202        0.37581
B          0.21362        3.26051       -0.52970
B          0.05769        4.67975        0.22878
B         -2.63908        3.28207       -0.17157
B         -1.32359        4.08413       -0.10967
B         -2.61385        1.57449       -0.55734
B         -3.91219        2.39112        0.11021
B         -3.91466        0.76646       -0.15425
B         -1.23174        2.45218       -0.80830
B         -1.16757       -2.63468       -0.75143
B          3.20362        0.09690       -0.68718
B         -1.23935        0.74697       -0.96364
B          4.43951       -2.37226        0.62263
B         -5.07461       -1.75367        0.82450
B         -5.18927       -0.12474        0.37330
B         -5.20980        1.54333        0.68175
B         -6.23827        0.65429        1.37565
B         -6.15609       -0.83657        1.47617
B          1.64611        0.91946       -0.93099
B          0.04474        1.24161        0.20676
B          0.35872       -1.82967       -1.12997
B          5.52721       -1.43826        1.08767
B          5.63258        0.13206        1.12822
B          5.34874        1.63609        1.19379
B          0.23150       -0.06616       -0.93968
