45
isomer_2860.log	Energy: -113273.6402885
B         -2.70219       -1.52179       -0.48834
B         -2.52021       -3.12191        0.33332
B         -1.26096       -3.96709        0.05512
B          0.81987       -3.53556       -0.88607
B         -1.16797       -0.98275       -0.91193
B          1.77957       -0.83687       -0.78720
B          1.75332       -4.02450        0.37802
B         -4.06027       -0.78076       -0.03714
B          1.93385       -2.46687       -0.30483
B         -3.79853       -2.26730        0.58614
B          0.14451       -4.43174        0.27352
B          3.09943       -3.18398        0.60499
B          3.26914       -1.62409       -0.08654
B          4.51386       -0.65004        0.36789
B          0.25386        1.65714       -1.02078
B          1.66960        2.48617       -0.51427
B          3.12105        1.78623       -0.31920
B          4.55131        1.00000        0.19089
B          4.30579        2.67208        0.62731
B          2.96114        3.38386        0.09266
B          1.55725        4.17001        0.02179
B          0.20228        3.32366       -0.63313
B          0.14857        4.73666        0.08568
B         -2.58672        3.29120       -0.16282
B         -1.24905        4.09341       -0.10498
B         -2.61780        1.55596       -0.56970
B         -3.90155        2.50264        0.04924
B         -4.06609        0.92735       -0.22784
B         -1.25410        2.43537       -0.72668
B         -1.77139       -2.61151       -1.09838
B          3.29129        0.09886       -0.52524
B         -1.21916        0.70023       -0.85315
B          4.39267       -2.22644        1.08483
B         -5.14277       -1.45142        1.10527
B         -5.20768        0.14207        0.61184
B         -5.22462        1.81334        0.73449
B         -6.17023        1.00984        1.63271
B         -6.12241       -0.47891        1.81795
B          1.70429        0.81845       -0.88673
B         -0.47892       -3.32116       -1.49673
B          0.47257       -1.84417       -1.17766
B          5.38798       -1.23435        1.59900
B          5.59157        0.30498        1.43140
B          5.38770        1.82798        1.27810
B          0.21015       -0.17426       -1.14282
