45
isomer_2861.log	Energy: -113449.3876875
B         -2.74916        0.97364        0.23618
B         -2.67222        2.66454       -0.70904
B         -1.38525        3.50990       -0.78157
B          0.04942        2.87947       -0.10838
B         -1.23957        0.24821        0.47225
B          1.70914        0.67336        0.85027
B          1.39074        3.93058       -0.43129
B         -4.26229        1.11514        0.85807
B          1.57373        2.28760        0.20792
B         -4.02707        2.18150       -0.30665
B         -0.02024        4.29171       -0.84381
B          2.86580        3.30172       -0.07051
B          3.09566        1.77673        0.56072
B          4.67486        1.07240        0.56273
B          0.73146       -1.99749        1.49381
B          1.92769       -2.42715        0.28105
B          3.28354       -1.52956        0.23816
B          4.64540       -0.53114        0.02330
B          4.63672       -2.05242       -0.75283
B          3.19468       -2.86559       -0.69091
B          1.72833       -3.34099       -1.10892
B          0.26236       -3.02086       -0.03849
B          0.33605       -3.44337       -1.61827
B         -2.48081       -2.53956       -0.93422
B         -1.05876       -3.06104       -1.29916
B         -2.30667       -1.08774        0.11661
B         -3.76597       -1.99357       -0.35322
B         -3.88612       -0.48936        0.37442
B         -1.57632       -2.78555        0.39641
B         -1.31541        1.82123       -0.22056
B          3.36611        0.07224        0.99440
B         -0.88012       -1.25320        1.13372
B          4.34391        2.68007       -0.13745
B         -5.60056        1.71658        0.02529
B         -5.49048        0.08263        0.45963
B         -5.24133       -1.41912       -0.27209
B         -6.52795       -0.62164       -0.58220
B         -6.75327        0.83652       -0.37958
B          2.01716       -0.97151        1.31577
B         -0.53287       -2.89752        1.51205
B          0.22119        1.28206        0.28782
B          5.59312        1.87870       -0.47848
B          5.93863        0.40597       -0.59410
B          5.82363       -1.14202       -0.85997
B          0.36314       -0.21210        1.17111
