45
isomer_2862.log	Energy: -112231.4505236
B          2.59702        1.87705       -0.42685
B          2.52245        3.50544       -0.03144
B          1.09248        4.29193        0.20231
B         -0.33018        3.46236       -0.35536
B          1.19074        0.98330       -0.73932
B         -1.79767        0.93213       -0.84563
B         -1.73261        4.20245        0.32109
B          4.07325        1.04817       -0.36014
B         -1.71669        2.54505       -0.27592
B          3.93231        2.71124        0.11336
B         -0.32449        4.85468        0.46668
B         -3.15551        3.34823        0.33320
B         -3.18256        1.74079       -0.23482
B         -4.64134        0.90594        0.26049
B         -0.40656       -1.54708       -0.97105
B         -1.75829       -2.29699       -0.28604
B         -3.19030       -1.52043       -0.23445
B         -4.63359       -0.71470        0.26191
B         -4.48331       -2.27563        0.52382
B         -3.14683       -3.14024        0.33115
B         -1.73973       -3.98182        0.32571
B         -0.24607       -3.22841       -0.37321
B         -0.37345       -4.79300        0.53620
B          2.81847       -3.20050       -0.07856
B          1.47634       -4.09666        0.21433
B          2.77787       -1.51233       -0.45611
B          4.16386       -2.30535        0.06953
B          4.15121       -0.64780       -0.37053
B          1.41166       -2.43336       -0.61452
B          1.16294        2.68247       -0.58603
B         -3.27448        0.19580       -0.63299
B          1.28018       -0.51042       -0.74646
B         -4.49305        2.48923        0.52464
B          5.27165        1.95261        0.61089
B          5.33702        0.31877        0.36466
B          5.41266       -1.46576        0.57980
B          6.49582       -0.48890        1.18687
B          6.45398        1.03206        1.20924
B         -1.81353       -0.71070       -0.85833
B          0.62174       -4.55937        0.24600
B         -0.29448        1.86124       -0.89661
B         -5.93489        1.70471        0.72148
B         -6.11053        0.05911        0.77864
B         -5.92090       -1.61453        0.78696
B          0.45733       -1.66079       -0.59460
