45
isomer_2863.log	Energy: -113379.5421957
B          2.58356       -1.64829        0.57289
B          2.38949       -3.21662       -0.15061
B          0.95826       -3.95771       -0.20586
B         -0.50506       -3.29184        0.62617
B          1.24047       -0.84581        1.11792
B         -1.85380       -0.89196        1.18887
B         -1.77935       -3.90692       -0.61051
B          3.97117       -0.91029        0.15624
B         -2.19157       -2.78078        0.62449
B          3.75213       -2.43209       -0.36582
B         -0.40556       -4.45925       -0.53943
B         -3.13058       -3.06286       -0.71268
B         -3.10023       -1.55550       -0.05776
B         -4.33303       -0.51856       -0.59263
B         -0.12328        1.69123        0.79784
B         -1.55453        2.55302        0.61693
B         -2.97188        1.81913        0.30226
B         -4.45726        1.05001       -0.02751
B         -4.18485        2.71683       -0.48892
B         -2.80235        3.44394       -0.06918
B         -1.41798        4.22541       -0.08801
B         -0.04825        3.27237        0.31848
B          0.01420        4.75607       -0.25249
B          2.75199        3.28877       -0.05070
B          1.41674        4.09941       -0.12060
B          2.75215        1.58356        0.63511
B          3.99803        2.40684       -0.22852
B          4.10098        0.82169        0.19258
B          1.37661        2.35894        0.28674
B          1.14003       -2.50231        0.58239
B         -3.16148        0.07155        0.49073
B          1.38804        0.78817        0.97715
B         -4.37261       -2.13469       -1.15630
B          5.14484       -1.73479       -0.83551
B          5.31400       -0.11204       -0.37009
B          5.29686        1.52983       -0.76440
B          6.27707        0.59257       -1.50535
B          6.22970       -0.89898       -1.50848
B         -1.61212        0.79131        0.85334
B         -0.18388       -0.02583        1.07907
B         -0.15815       -1.73585        1.42039
B         -5.44543       -1.13851       -1.55986
B         -5.57059        0.38974       -1.35778
B         -5.27622        1.88151       -1.13585
B         -1.45625       -2.37041        1.91528
