45
isomer_2864.log	Energy: -113400.2820689
B          2.47994       -1.74756        0.27467
B          2.34930       -3.33815       -0.29104
B          0.90975       -4.10398       -0.32472
B         -0.42715       -3.30429        0.37029
B          1.14172       -0.80217        0.69467
B         -1.74139       -0.75277        1.00772
B         -1.88827       -4.01447       -0.21512
B          3.89437       -1.00390        0.02953
B         -1.87957       -2.45404        0.56238
B          3.75577       -2.58669       -0.38309
B         -0.51162       -4.66859       -0.44253
B         -3.24321       -3.15672       -0.08347
B         -3.24844       -1.52940        0.46123
B         -4.57301       -0.64910       -0.07262
B         -0.17079        1.79143        1.05224
B         -1.50208        2.57945        0.20747
B         -2.98747        1.79328        0.11736
B         -4.47301        1.05551       -0.10799
B         -4.17352        2.57431       -0.86325
B         -2.77667        3.38378       -0.46742
B         -1.33757        4.13373       -0.43616
B         -0.03951        3.38250        0.50443
B          0.11913        4.62934       -0.51142
B          2.75682        3.17408        0.02741
B          1.44480        4.03567       -0.13222
B          2.71925        1.57725        0.71220
B          4.00666        2.28249       -0.13750
B          4.01048        0.69796        0.22176
B          1.37428        2.49444        0.74984
B          1.07822       -2.56811        0.46429
B         -3.23419        0.12599        0.63470
B          1.24924        0.78995        1.07611
B         -4.58057       -2.33572       -0.47587
B          5.16344       -1.83032       -0.76611
B          5.29695       -0.22485       -0.18701
B          5.34753        1.42738       -0.56373
B          6.39492        0.53145       -1.18892
B          6.27746       -0.95044       -1.31580
B         -1.58650        0.85891        0.55290
B         -0.21295       -0.06278        0.01008
B         -0.35466       -1.70761        0.98773
B         -5.62720       -1.39391       -1.01545
B         -5.63462        0.15988       -1.17483
B         -5.30701        1.67399       -1.32491
B         -0.25907        0.03278        1.76217
