45
isomer_2865.log	Energy: -113301.2415209
B         -2.46563       -1.55277       -0.57851
B         -2.61919       -3.31839       -0.21128
B         -1.31631       -4.14529       -0.00297
B          0.20400       -3.42238       -0.59146
B         -1.04766       -0.99230       -1.17484
B          1.36441       -0.77298       -0.86243
B          1.46324       -4.18317        0.38442
B         -3.77283       -0.73097       -0.15911
B          1.42921       -2.42466       -0.17030
B         -3.78398       -2.37108        0.12709
B          0.06960       -4.71474        0.42121
B          2.79826       -3.30628        0.40581
B          2.93783       -1.77734       -0.15331
B          4.33349       -0.92748        0.20640
B          0.41894        1.94150       -1.12750
B          1.84201        2.54911       -0.55474
B          3.09754        1.65169       -0.17301
B          4.41617        0.70395        0.16910
B          4.46857        2.38071        0.62409
B          3.14641        3.26810        0.20763
B          1.83537        4.20607        0.26918
B          0.45215        3.50510       -0.46163
B          0.45377        4.82329        0.41536
B         -2.41453        3.47967       -0.04739
B         -0.99410        4.27164        0.09367
B         -2.43132        1.80404       -0.59862
B         -3.72883        2.60556        0.19734
B         -3.75196        0.97053       -0.08061
B         -1.04987        2.77286       -0.63204
B         -1.19622       -2.65393       -0.89074
B          3.06485       -0.08729       -0.52701
B         -1.96318        0.23624       -0.70630
B          4.17076       -2.54544        0.78402
B         -5.03873       -1.55389        0.79670
B         -4.85121        0.12278        0.75710
B         -4.92580        1.78971        0.92493
B         -5.99808        0.86571        1.60221
B         -6.06709       -0.65170        1.49080
B          1.58782        0.82017       -0.78603
B         -0.98435        1.16320       -1.30104
B          0.31716       -1.95309       -1.60558
B          5.34612       -1.65800        1.21206
B          5.62356       -0.15398        1.14884
B          5.52189        1.41406        1.09040
B          0.03772       -1.44854        0.06811
