45
isomer_2866.log	Energy: -113675.8861159
B         -2.60969        0.01607       -0.74640
B         -2.51396       -3.30392        0.03675
B         -1.15709       -4.14930        0.10925
B          0.26854       -3.40201       -0.53757
B         -1.17017       -0.85071       -1.06854
B          1.71809       -0.84339       -0.78793
B          1.64195       -4.16971        0.25840
B         -3.98425       -0.84530       -0.22498
B          1.72454       -2.55118       -0.43080
B         -3.86989       -2.48509        0.27533
B          0.21970       -4.74790        0.35344
B          3.00867       -3.34080        0.27824
B          3.12916       -1.73349       -0.22067
B          4.54704       -0.89418        0.14449
B          0.36918        1.82518       -1.11714
B          1.80205        2.53273       -0.48864
B          3.17321        1.68030       -0.25957
B          4.53233        0.79769        0.23757
B          4.40682        2.44429        0.74965
B          3.09191        3.28054        0.26628
B          1.74811        4.14439        0.24583
B          0.35102        3.38473       -0.51459
B          0.34158        4.74585        0.35186
B         -2.42754        3.33481        0.03997
B         -1.04760        4.15722        0.12293
B         -2.50913        1.75963       -0.48824
B         -3.80981        2.53727        0.29277
B         -3.95649        0.91059       -0.21584
B         -1.11932        2.58994       -0.76488
B         -2.56333       -1.73080       -0.53085
B          3.29366       -0.01599       -0.60937
B         -1.12980        0.84870       -1.04174
B          4.32660       -2.49990        0.77016
B         -5.10458       -1.65169        0.84487
B         -5.19546        0.04454        0.52283
B         -5.06058        1.73881        0.86500
B         -6.08399        0.81388        1.61336
B         -6.10454       -0.70679        1.60557
B          1.78651        0.83043       -0.91121
B         -1.18597       -2.57746       -0.78843
B          0.31292       -1.83049       -1.08735
B          5.37318       -1.56964        1.33774
B          5.62019       -0.03353        1.30451
B          5.47348        1.51844        1.30153
B          0.34276       -0.00280       -1.09356
