45
isomer_2867.log	Energy: -113675.8833743
B          2.50856        1.76008       -0.48793
B          2.42637        3.33505        0.04028
B          1.04593        4.15707        0.12275
B         -0.35227        3.38434       -0.51539
B          1.12915        0.84903       -1.04063
B         -1.78813        0.82988       -0.91225
B         -1.74942        4.14399        0.24507
B          3.95628        0.91153       -0.21567
B         -1.80305        2.53248       -0.48957
B          3.80902        2.53772        0.29326
B         -0.34321        4.74553        0.35106
B         -3.09288        3.27967        0.26608
B         -3.17409        1.67950       -0.26069
B         -4.53221        0.79645        0.23873
B         -0.31190       -1.83063       -1.08736
B         -1.72414       -2.55211       -0.42994
B         -3.12859       -1.73332       -0.22009
B         -4.54732       -0.89559        0.14353
B         -4.32517       -2.50054        0.77125
B         -3.00761       -3.34170        0.27895
B         -1.64061       -4.17026        0.25809
B         -0.26793       -3.40281       -0.53906
B         -0.21777       -4.74814        0.35250
B          2.51494       -3.30327        0.03644
B          1.15843       -4.14899        0.10821
B          2.56391       -1.73012       -0.53055
B          3.87039       -2.48412        0.27515
B          3.98510       -0.84425       -0.22616
B          1.18630       -2.57692       -0.78919
B          1.11850        2.59002       -0.76373
B         -3.29373       -0.01652       -0.60971
B          1.17053       -0.85021       -1.06738
B         -4.40756        2.44382        0.74919
B          5.05997        1.73992        0.86524
B          5.19535        0.04546        0.52317
B          5.10506       -1.65046        0.84462
B          6.10496       -0.70538        1.60568
B          6.08355        0.81523        1.61360
B         -1.71645       -0.84421       -0.78559
B          2.61009        0.01664       -0.74654
B         -0.37019        1.82472       -1.11782
B         -5.47414        1.51784        1.30110
B         -5.61984       -0.03405        1.30483
B         -5.37099       -1.56976        1.33914
B         -0.34317       -0.00264       -1.09269
