45
isomer_2870.log	Energy: -113347.0708008
B         -2.69135       -1.49505       -0.56715
B         -2.47237       -3.11788        0.03552
B         -1.44369       -4.15447        0.61951
B          0.22744       -3.29655       -0.58989
B         -1.27907       -0.56816       -1.06327
B          1.69178       -0.81068       -0.95382
B          1.49910       -4.04723        0.30978
B         -4.03542       -0.66781       -0.30500
B          1.67569       -2.42293       -0.41951
B         -3.90747       -2.22017        0.27023
B          0.01999       -4.54941        0.43936
B          2.86740       -3.27602        0.36490
B          3.07773       -1.69870       -0.25109
B          4.44326       -0.87747        0.23619
B          0.39823        1.88310       -1.10858
B          1.81694        2.56487       -0.39092
B          3.17819        1.71980       -0.20621
B          4.51886        0.79208        0.25014
B          4.46335        2.43212        0.75527
B          3.10588        3.27637        0.36209
B          1.72293        4.14538        0.34026
B          0.37778        3.46392       -0.49740
B          0.30661        4.75568        0.40331
B         -2.46474        3.43139       -0.17854
B         -1.11136        4.20626        0.00859
B         -2.55035        1.73206       -0.63341
B         -3.79508        2.59052        0.15461
B         -3.99819        1.00426       -0.32579
B         -1.16759        2.67152       -0.82927
B         -1.31488       -2.21873       -0.93093
B          3.26061        0.00257       -0.56901
B         -1.12515        1.00364       -1.05420
B          4.30548       -2.51085        0.72623
B         -5.09312       -1.49693        0.94789
B         -5.11320        0.19889        0.64481
B         -4.99851        1.87793        0.84650
B         -6.04616        0.98028        1.67016
B         -6.05584       -0.51487        1.73535
B          1.78012        0.91302       -0.93471
B         -1.21170       -3.88413       -0.95454
B          0.23759       -1.66930       -1.11367
B          5.42033       -1.63336        1.24811
B          5.67174       -0.08705        1.24426
B          5.53114        1.47161        1.26808
B          0.27709        0.10049       -1.00423
