45
isomer_2871.log	Energy: -112871.7581988
B         -2.62954       -1.61705       -0.49121
B         -2.61742       -3.26064       -0.12391
B         -1.21587       -4.09705        0.10710
B          0.24407       -3.27110       -0.44237
B         -1.17633       -0.73834       -0.78972
B          1.71637       -0.76222       -0.87006
B          1.62888       -4.06138        0.24564
B         -4.06677       -0.74001       -0.40533
B          1.63673       -2.38143       -0.32655
B         -4.01354       -2.42905        0.03430
B          0.20022       -4.70995        0.37718
B          3.06217       -3.21865        0.27405
B          3.09803       -1.59474       -0.27402
B          4.55833       -0.78463        0.23263
B          0.28429        1.80359       -0.90850
B          1.67338        2.48753       -0.27492
B          3.12266        1.67788       -0.24118
B          4.56762        0.83871        0.24836
B          4.42030        2.39873        0.51466
B          3.11260        3.29099        0.34064
B          1.69531        4.15697        0.33323
B          0.29768        3.40322       -0.36139
B          0.28411        4.82843        0.47606
B         -2.55824        3.43776       -0.05318
B         -1.14385        4.24447        0.19578
B         -2.59143        1.80738       -0.45127
B         -3.97100        2.62601        0.08892
B         -4.05270        0.95328       -0.38527
B         -1.16071        2.62518       -0.60448
B         -1.20669       -2.46134       -0.66051
B          3.19401       -0.04929       -0.65403
B         -1.14646        0.91050       -0.76743
B          4.38789       -2.35064        0.46785
B         -5.32202       -1.62384        0.54957
B         -5.30369        0.01263        0.33192
B         -5.28877        1.82621        0.58297
B         -6.45140        0.87722        1.17333
B         -6.47032       -0.66556        1.16123
B          1.72851        0.88620       -0.85260
B         -0.28605       -2.65765        1.09353
B          0.26389       -1.66077       -0.94572
B          5.87449       -1.62947        0.68525
B          6.07629        0.06395        0.76287
B          5.89557        1.77126        0.78455
B         -0.35058       -0.16333       -0.17797
