45
isomer_2872.log	Energy: -113434.6976733
B         -2.60366        1.63221        0.67787
B         -2.51970        3.23845        0.05941
B         -1.16713        4.11657       -0.04555
B          0.30769        3.37586        0.49006
B         -1.13067        0.83869        1.03764
B          1.56624        0.74761        0.09596
B          1.63901        4.14479       -0.34854
B         -4.01958        0.79951        0.41868
B          1.69948        2.50470        0.27411
B         -3.87879        2.36293       -0.14630
B          0.22565        4.72048       -0.36751
B          3.04896        3.30212       -0.37443
B          3.07136        1.69271       -0.06094
B          4.54043        0.82598       -0.01381
B          0.25553       -1.64044        0.63670
B          1.68687       -2.49252        0.51980
B          3.12145       -1.75361        0.40405
B          4.40463       -0.83207       -0.26190
B          4.42579       -2.52952       -0.45971
B          3.00995       -3.29793       -0.11773
B          1.62456       -4.18509       -0.11925
B          0.24238       -3.26663        0.20998
B          0.20976       -4.76961       -0.27255
B         -2.59343       -3.26174       -0.08513
B         -1.21395       -4.10113       -0.18187
B         -2.66810       -1.58100        0.36042
B         -3.99288       -2.41681       -0.25914
B         -4.10075       -0.87510        0.40873
B         -1.27432       -2.45450        0.33338
B         -1.21229        2.55699        0.68103
B          3.13218        0.00908        0.47234
B         -1.20974       -0.69576        0.59931
B          4.42169        2.47062       -0.71101
B         -5.15230        1.65657       -0.67879
B         -5.31240        0.00474       -0.33815
B         -5.28758       -1.67167       -0.69441
B         -6.39241       -0.71896       -1.29661
B         -6.30353        0.76797       -1.33254
B          1.69386       -0.75579        1.08564
B          0.32628        0.07614        1.58261
B          0.35395        1.73316        0.93602
B          5.51335        1.48410       -1.07646
B          5.74374       -0.07455       -0.98160
B          5.58967       -1.64236       -0.90668
B          0.17877       -0.04520       -0.15314
