45
isomer_2874.log	Energy: -113456.3698304
B          2.51142        1.78077       -0.61222
B          2.39085        3.45266        0.14333
B          0.99953        4.18173        0.21425
B         -0.40436        3.37779       -0.42200
B          1.20364        0.98568       -1.08059
B         -1.75078        0.82884       -0.86262
B         -1.85896        4.11695        0.16501
B          3.85762        1.03694       -0.09685
B         -1.85231        2.52297       -0.63569
B          3.67874        2.61538        0.35004
B         -0.45935        4.71915        0.41027
B         -3.19554        3.24093        0.09674
B         -3.19190        1.62918       -0.33892
B         -4.56516        0.65508       -0.03471
B         -0.27036       -1.81677       -1.50153
B         -1.27889       -2.32307        0.21320
B         -2.90196       -1.83160       -0.09598
B         -4.27330       -0.92365        0.42117
B         -4.07666       -2.55190        0.96181
B         -2.69153       -3.28276        0.58292
B         -1.35476       -4.11034        0.33374
B         -0.15802       -3.30597       -0.67861
B          0.02293       -4.68880        0.17112
B          2.68615       -3.24369       -0.17432
B          1.38979       -4.07102       -0.14269
B          2.63133       -1.52730       -0.55418
B          3.94685       -2.33567        0.10428
B          3.93647       -0.72013       -0.16645
B          1.27539       -2.42856       -0.81078
B          1.09989        2.56126       -0.45154
B         -3.17018       -0.14084       -0.58627
B          1.25251       -0.71418       -0.94339
B         -4.50960        2.35189        0.46511
B          5.01599        1.81229        0.86083
B          5.17643        0.20202        0.37869
B          5.23137       -1.47033        0.68986
B          6.22724       -0.56512        1.40612
B          6.11162        0.91928        1.51481
B         -1.65434       -0.94276       -0.98947
B         -0.02971       -1.28947        0.14648
B         -0.35847        1.79317       -0.99410
B         -5.50668        1.37127        1.03714
B         -5.59611       -0.18290        1.19627
B         -5.29723       -1.70021        1.34428
B         -0.23961        0.01183       -1.03458
