45
isomer_2875.log	Energy: -112348.6387679
B          2.58760       -1.67721        0.42279
B          2.58085       -3.31726        0.05158
B          1.17486       -4.15083       -0.18325
B         -0.28187       -3.31787        0.36607
B          1.12754       -0.78595        0.72738
B         -1.74691       -0.81953        0.82008
B         -1.67261       -4.10924       -0.31503
B          4.04468       -0.80122        0.34086
B         -1.66655       -2.42674        0.26793
B          3.98663       -2.49574       -0.10662
B         -0.24706       -4.77135       -0.45443
B         -3.10589       -3.26460       -0.33044
B         -3.13354       -1.64016        0.22732
B         -4.59576       -0.83237       -0.27011
B         -0.31655        1.73927        0.86918
B         -1.70176        2.42880        0.24268
B         -3.15718        1.62065        0.21036
B         -4.60750        0.78661       -0.27853
B         -4.45182        2.34413       -0.53227
B         -3.15305        3.23943       -0.36426
B         -1.73218        4.10489       -0.35775
B         -0.33015        3.34089        0.33144
B         -0.31637        4.78611       -0.50413
B          2.53230        3.37852        0.01676
B          1.11438        4.18913       -0.22662
B          2.56280        1.74270        0.40501
B          3.94985        2.57588       -0.13300
B          4.03244        0.88713        0.33209
B          1.12713        2.55745        0.56691
B          1.16389       -2.51096        0.59327
B         -3.22700       -0.10828        0.61619
B          1.11579        0.83358        0.71896
B         -4.41749       -2.39002       -0.50765
B          5.30379       -1.68407       -0.61812
B          5.28966       -0.05177       -0.39268
B          5.27869        1.77813       -0.63613
B          6.44943        0.82865       -1.23625
B          6.46069       -0.72401       -1.22818
B         -1.75885        0.82643        0.81152
B          1.04212       -1.08424       -0.53538
B         -0.29153       -1.71071        0.88712
B         -5.93172       -1.69104       -0.72179
B         -6.13936        0.02038       -0.79522
B         -5.95414        1.75169       -0.81030
B          1.01172        0.60473        1.71266
