45
isomer_2876.log	Energy: -113332.2179015
B         -2.71746       -1.73177       -0.84759
B         -2.59848       -3.27261        0.26857
B         -1.26847       -4.08699        0.36049
B          0.16501       -3.37409       -0.37364
B         -1.29009       -0.56220       -1.15248
B          1.54994       -0.86742       -0.81604
B          1.53457       -4.09416        0.39655
B         -3.89507       -0.79490       -0.16722
B          1.60622       -2.50326       -0.36871
B         -3.77265       -2.33763        0.38925
B          0.15535       -4.66877        0.58120
B          2.92791       -3.28129        0.31594
B          3.01478       -1.72195       -0.23270
B          4.40869       -0.88673        0.29022
B          0.33031        1.87154       -0.99626
B          1.79202        2.55955       -0.35633
B          3.17519        1.68112       -0.28468
B          4.52919        0.76584        0.15579
B          4.45927        2.40834        0.66488
B          3.14709        3.28745        0.23581
B          1.78704        4.13601        0.27682
B          0.39744        3.49397       -0.65547
B          0.36293        4.65863        0.44410
B         -2.46742        3.47003        0.03878
B         -1.08651        4.19299        0.13239
B         -2.52778        1.74484       -0.60221
B         -3.75351        2.59554        0.24833
B         -3.87549        0.99373       -0.18801
B         -1.15348        2.67288       -0.57677
B         -1.35012       -2.78016       -0.74150
B          3.18371       -0.03694       -0.49993
B         -1.17548        1.02175       -0.93817
B          4.30754       -2.52715        0.72387
B         -5.01578       -1.46128        0.96834
B         -5.07141        0.14095        0.51241
B         -5.00701        1.80491        0.84460
B         -5.97482        0.93214        1.66188
B         -5.97793       -0.54055        1.72571
B          1.67983        0.85919       -0.74516
B         -1.54555       -1.77181       -2.00252
B          0.11926       -1.81117       -1.18954
B          5.44258       -1.65486        1.22423
B          5.65799       -0.09832        1.20992
B          5.49982        1.45745        1.20734
B          0.29080        0.11717       -1.14247
