45
isomer_2877.log	Energy: -111524.1142855
B         -2.60983       -1.61214       -0.43503
B         -2.62509       -3.24920       -0.05107
B         -1.23049       -4.09917        0.19269
B          0.23789       -3.28958       -0.36053
B         -1.13776       -0.74240       -0.74398
B          1.73615       -0.81416       -0.83138
B          1.61706       -4.09368        0.32913
B         -4.05549       -0.71663       -0.36247
B          1.63392       -2.41583       -0.26690
B         -4.02029       -2.40822        0.09828
B          0.18277       -4.73604        0.47118
B          3.06121       -3.26769        0.34049
B          3.11097       -1.64815       -0.22983
B          4.58279       -0.85563        0.26387
B          0.33938        1.76261       -0.90286
B          1.73244        2.43888       -0.27932
B          3.17714        1.61211       -0.23817
B          4.61564        0.76307        0.25973
B          4.47988        2.32442        0.50108
B          3.19318        3.23523        0.32385
B          1.78373        4.11906        0.30812
B          0.37300        3.36806       -0.37757
B          0.37670        4.81980        0.44672
B         -2.48923        3.44545       -0.06820
B         -1.06126        4.23938        0.17136
B         -2.54044        1.80718       -0.44378
B         -3.91739        2.66255        0.08530
B         -4.02123        0.97143       -0.36679
B         -1.09400        2.60186       -0.60950
B         -1.19684       -2.46569       -0.59653
B          3.22505       -0.12070       -0.63043
B         -1.10490        0.87686       -0.74812
B          4.38382       -2.40893        0.51319
B         -5.32759       -1.57549        0.60114
B         -5.29179        0.05468        0.36305
B         -5.25734        1.88612        0.59229
B         -6.44137        0.95669        1.19772
B         -6.47287       -0.59571        1.20169
B          1.76955        0.83152       -0.83559
B         -1.83781       -2.10149       -0.16592
B          0.26938       -1.68679       -0.89404
B          5.90669       -1.72810        0.72455
B          6.13651       -0.01901        0.78505
B          5.97388        1.71463        0.78634
B         -0.16573        0.15886       -0.11882
