45
isomer_2878.log	Energy: -113549.1846298
B          2.82684        0.96701       -0.50014
B          2.81451        2.70885        0.03521
B          1.64139        3.70943        0.04855
B          0.12712        3.18371       -0.57889
B          1.28273        0.50786       -1.25056
B         -1.71247        0.94983       -1.12662
B         -1.10424        4.16212        0.15601
B          4.51053        0.63019       -0.60219
B         -1.41173        2.54904       -0.53786
B          4.19958        2.01731        0.16691
B          0.35553        4.55795        0.22536
B         -2.57751        3.48190        0.23618
B         -2.93136        1.98152       -0.33871
B         -4.26363        1.16654        0.37653
B         -0.61332       -1.79399       -1.44477
B         -1.62797       -2.22606       -0.09834
B         -3.13374       -1.46565       -0.06649
B         -4.51527       -0.47448        0.23114
B         -4.27561       -2.10230        0.99111
B         -3.00888       -2.99058        0.52667
B         -1.63013       -3.89759        0.31134
B         -0.52472       -3.41636       -1.19334
B         -0.31435       -4.59386        0.03405
B          1.53294       -2.47680        0.46060
B          1.01338       -3.89844       -0.36250
B          2.06155       -0.96584       -0.47889
B          2.80587       -1.68114        0.92637
B          3.64954       -0.67392       -0.15840
B          1.03990       -2.47126       -1.19807
B          1.52477        2.11451       -0.75620
B         -3.27240        0.24908       -0.63597
B          0.95507       -0.96134       -1.76815
B         -3.95919        2.81503        0.79903
B          5.48161        1.29457        0.70093
B          5.20167       -0.40220        0.51007
B          4.19161       -1.43388        1.48778
B          5.58528       -0.99179        1.98766
B          6.22692        0.26887        1.60729
B         -1.84294       -0.69774       -0.95231
B         -0.12906       -2.77534        0.45166
B         -0.09815        1.65507       -1.14816
B         -5.08269        2.02587        1.44064
B         -5.35215        0.49376        1.51165
B         -5.22184       -1.06426        1.54185
B         -0.42502       -0.03522       -1.56803
