45
isomer_2879.log	Energy: -112516.3265664
B          2.59563        1.72145       -0.42943
B          2.58057        3.35652       -0.03708
B          1.17056        4.17859        0.21367
B         -0.28327        3.34409       -0.34095
B          1.13973        0.82549       -0.74007
B         -1.73519        0.84309       -0.82170
B         -1.67609        4.11831        0.35543
B          4.05818        0.85320       -0.36418
B         -1.66227        2.44351       -0.24919
B          3.99178        2.54145        0.10532
B         -0.25398        4.78707        0.49808
B         -3.10427        3.26499        0.36525
B         -3.12441        1.64773       -0.21329
B         -4.57993        0.82489        0.27909
B         -0.28989       -1.70628       -0.90906
B         -1.66862       -2.41207       -0.28639
B         -3.12867       -1.61312       -0.23827
B         -4.58205       -0.79410        0.26669
B         -4.41619       -2.35380        0.49976
B         -3.11278       -3.23909        0.31543
B         -1.68684       -4.09590        0.29250
B         -0.29198       -3.31474       -0.39196
B         -0.26649       -4.77048        0.42486
B          2.57181       -3.33933       -0.08838
B          1.15965       -4.16145        0.14978
B          2.59116       -1.69849       -0.45562
B          3.98514       -2.53023        0.06647
B          4.05597       -0.83516       -0.37711
B          1.15974       -2.51964       -0.62270
B          1.16637        2.54882       -0.58388
B         -3.21026        0.12045       -0.62153
B          1.13762       -0.79406       -0.75248
B         -4.41000        2.38039        0.53602
B          5.31565        1.73114        0.60144
B          5.31033        0.10182        0.35504
B          5.31112       -1.73109        0.57492
B          6.47847       -0.78244        1.18290
B          6.48050        0.77024        1.19479
B         -1.73734       -0.80289       -0.83431
B          1.02343       -1.05632        0.88648
B         -0.28538        1.74374       -0.88263
B         -5.91924        1.66969        0.74674
B         -6.11646       -0.04375        0.79888
B         -5.92094       -1.77397        0.79096
B          0.17916        0.55171       -1.26030
