45
isomer_0288.log	Energy: -113311.3161716
B          2.15859        1.65487       -0.60337
B          1.89249        3.28167       -0.00450
B          0.53898        3.95757        0.27339
B         -0.83692        3.38384       -0.50282
B          1.06738        0.61143       -1.15736
B         -2.20830        0.97616       -1.13973
B         -2.23946        3.96427        0.51784
B          3.73390        1.20123       -0.19872
B         -2.35456        2.60453       -0.52383
B          3.31500        2.71392        0.15545
B         -0.82883        4.51594        0.64548
B         -3.55211        3.01743        0.54074
B         -3.54927        1.52106       -0.24119
B         -4.61113        0.33394        0.35715
B          0.47021       -2.38507       -1.53806
B         -1.09348       -2.44369       -0.66992
B         -2.71542       -1.89513       -0.36733
B         -4.31092       -1.31700        0.12109
B         -3.74143       -2.83467        0.68986
B         -2.32062       -3.37567        0.13354
B         -0.91547       -3.95958        0.42393
B          0.44002       -3.56565       -0.45639
B          0.46880       -4.38430        0.91279
B          3.16169       -3.00560        0.40492
B          1.85936       -3.83853        0.62289
B          2.98117       -1.47434       -0.46093
B          4.36407       -1.98645        0.45183
B          4.14983       -0.45846       -0.10643
B          1.91337       -2.65476       -0.66543
B          0.64805        2.36542       -0.74488
B         -3.34739       -0.21598       -0.67227
B          1.59130       -0.98862       -1.13881
B         -4.73946        1.93636        0.96600
B          4.80362        2.26617        0.66817
B          5.18841        0.67069        0.39777
B          5.52428       -0.92484        0.85579
B          6.35010        0.22146        1.48172
B          6.03022        1.67707        1.38984
B         -1.66679       -0.68498       -0.91153
B         -0.61004        0.51358       -1.31458
B         -0.91694        2.06648       -1.36443
B         -5.62830        0.83221        1.48477
B         -5.46337       -0.72428        1.42240
B         -4.90066       -2.16942        1.35806
B         -0.09996       -1.00028       -1.49285
