45
isomer_2880.log	Energy: -112508.4128738
B          2.64237       -1.66216        0.40088
B          2.62968       -3.29663        0.00598
B          1.22079       -4.12086       -0.24395
B         -0.23371       -3.28987        0.31417
B          1.18532       -0.76932        0.71513
B         -1.68944       -0.79227        0.80105
B         -1.62618       -4.06553       -0.38134
B          4.10324       -0.79115        0.33480
B         -1.61448       -2.39165        0.22590
B          4.03920       -2.47877       -0.13726
B         -0.20307       -4.73147       -0.52718
B         -3.05592       -3.21478       -0.38766
B         -3.07811       -1.59848        0.19346
B         -4.53587       -0.77750       -0.29544
B         -0.24864        1.75958        0.89026
B         -1.62958        2.46384        0.27078
B         -3.08825        1.66231        0.22359
B         -4.54090        0.84146       -0.28047
B         -4.37822        2.40183       -0.51132
B         -3.07614        3.28919       -0.32755
B         -1.65173        4.14855       -0.30542
B         -0.25442        3.36884        0.37571
B         -0.23279        4.82592       -0.43885
B          2.60886        3.39910        0.06786
B          1.19485        4.21904       -0.16688
B          2.63174        1.75772        0.43248
B          4.02342        2.59282       -0.09039
B          4.09799        0.89719        0.35041
B          1.19909        2.57602        0.60301
B          1.21485       -2.49235        0.55617
B         -3.16612       -0.07200        0.60423
B          1.18029        0.85019        0.73009
B         -4.36350       -2.33229       -0.55508
B          5.36084       -1.66528       -0.63409
B          5.35295       -0.03636       -0.38510
B          5.35008        1.79689       -0.60210
B          6.51823        0.85132       -1.21333
B          6.52306       -0.70133       -1.22768
B         -1.69456        0.85367        0.81626
B         -0.12317       -1.20505        2.02309
B         -0.23791       -1.69038        0.85838
B         -5.87435       -1.62399       -0.76240
B         -6.07475        0.08916       -0.81153
B         -5.88235        1.81972       -0.80118
B         -0.52270       -0.66488       -0.70747
