45
isomer_2882.log	Energy: -112217.6007916
B          2.60982        1.74244       -0.45938
B          2.59703        3.37537       -0.05815
B          1.18815        4.19808        0.19686
B         -0.26678        3.36867       -0.36251
B          1.15270        0.85025       -0.77511
B         -1.72219        0.87240       -0.85706
B         -1.65861        4.14109        0.33787
B          4.07111        0.87176       -0.39864
B         -1.64708        2.46958       -0.27585
B          4.00705        2.55753        0.08002
B         -0.23556        4.80703        0.48436
B         -3.08800        3.28977        0.34284
B         -3.11035        1.67571       -0.24449
B         -4.56713        0.85227        0.24320
B         -0.28052       -1.67852       -0.95807
B         -1.66035       -2.38571       -0.33945
B         -3.11926       -1.58495       -0.28720
B         -4.57155       -0.76662        0.22199
B         -4.40795       -2.32780        0.44660
B         -3.10578       -3.21394        0.25764
B         -1.68106       -4.07264        0.23027
B         -0.28498       -3.28976       -0.44973
B         -0.26168       -4.74996        0.35917
B          2.57873       -3.32008       -0.14586
B          1.16536       -4.14147        0.08762
B          2.60047       -1.67729       -0.50417
B          3.99319       -2.51385        0.01359
B          4.06650       -0.81650       -0.42075
B          1.16791       -2.49549       -0.67593
B          1.18177        2.57267       -0.60954
B         -3.19832        0.15079       -0.66104
B          1.14827       -0.76919       -0.79632
B         -4.39501        2.40611        0.50860
B          5.32968        1.74265        0.57193
B          5.32209        0.11470        0.31666
B          5.32022       -1.71938        0.52658
B          6.48883       -0.77571        1.13988
B          6.49308        0.77687        1.16021
B         -1.72669       -0.77348       -0.87862
B          0.39820       -1.69514        1.68991
B         -0.27109        1.77130       -0.91288
B         -5.90530        1.69643        0.71523
B         -6.10497       -0.01698        0.75802
B         -5.91191       -1.74741        0.74072
B          0.30194        0.22838       -0.35903
