45
isomer_2884.log	Energy: -112658.0360559
B         -2.58054        1.76717        0.40700
B         -2.55220        3.41083        0.05322
B         -1.13521        4.22928       -0.16830
B          0.30925        3.37249        0.37677
B         -1.13267        0.85464        0.70675
B          1.74166        0.85145        0.80890
B          1.71195        4.15364       -0.29149
B         -4.04810        0.91030        0.31117
B          1.68308        2.46527        0.27358
B         -3.96754        2.60860       -0.11814
B          0.29520        4.83488       -0.42838
B          3.13467        3.29143       -0.31131
B          3.14031        1.66097        0.22927
B          4.59403        0.84034       -0.27206
B          0.27949       -1.68972        0.82633
B          1.65809       -2.38978        0.19695
B          3.12353       -1.59952        0.17781
B          4.58570       -0.77848       -0.29761
B          4.41153       -2.33117       -0.56834
B          3.10120       -3.21196       -0.41395
B          1.66968       -4.05969       -0.42112
B          0.27498       -3.28562        0.27169
B          0.24602       -4.72165       -0.57920
B         -2.58666       -3.28429       -0.05244
B         -1.17812       -4.10987       -0.29991
B         -2.59814       -1.65240        0.35303
B         -3.99364       -2.46253       -0.19817
B         -4.05679       -0.77788        0.28453
B         -1.17324       -2.48662        0.51083
B         -1.14715        2.58129        0.59082
B          3.21346        0.12403        0.60218
B         -1.14100       -0.76473        0.68119
B          4.43589        2.40251       -0.49363
B         -5.29299        1.81884       -0.64238
B         -5.29986        0.18420       -0.43422
B         -5.31080       -1.64302       -0.69702
B         -6.46768       -0.67276       -1.29075
B         -6.45969        0.87975       -1.26625
B          1.73319       -0.79435        0.78293
B         -1.33374       -1.94176        2.09591
B          0.29724        1.75992        0.88077
B          5.94203        1.68704       -0.71037
B          6.12865       -0.02596       -0.80129
B          5.92201       -1.75458       -0.83531
B         -0.17707       -0.25050        0.16999
