45
isomer_2885.log	Energy: -113390.6918154
B         -2.74767       -1.41680       -1.09861
B         -2.87011       -3.04819       -0.40862
B         -1.61713       -3.96239       -0.22758
B         -0.09300       -3.34853       -0.62555
B         -1.70240       -0.39033       -1.82936
B          1.46187       -0.90515       -0.76093
B          1.11438       -4.17867        0.39135
B         -3.81420       -0.52859       -0.21457
B          1.39472       -2.61501       -0.24389
B         -4.06642       -2.16198       -0.11554
B         -0.32882       -4.64934        0.26908
B          2.55809       -3.45469        0.55920
B          2.83979       -1.92337        0.01226
B          4.30079       -1.20585        0.35269
B          0.51587        1.73099       -1.16724
B          2.00957        2.36445       -0.70171
B          3.28270        1.43448       -0.33283
B          4.54789        0.43340        0.19182
B          4.62907        2.11550        0.51759
B          3.42719        3.04627       -0.05829
B          2.17369        4.04786       -0.07495
B          0.68890        3.38983       -0.67508
B          0.86383        4.77657        0.11445
B         -1.95196        3.47323        0.25635
B         -0.58779        4.24702        0.06763
B         -2.12771        1.86992       -0.21486
B         -3.35634        2.77921        0.57995
B         -3.55465        1.14263        0.23136
B         -0.83467        2.66539       -0.74774
B         -1.38201       -2.36434       -1.07354
B          3.09643       -0.29352       -0.45878
B         -1.00997        0.94680       -1.29826
B          3.98571       -2.75128        1.02258
B         -5.17045       -1.29453        0.65083
B         -4.91603        0.38901        0.69872
B         -4.58974        2.00981        1.25973
B         -5.57544        1.03136        2.01589
B         -5.90507       -0.41465        1.68978
B          1.72016        0.69724       -0.84905
B         -2.12590        0.11749       -0.09450
B          0.22856       -1.76774       -1.18422
B          5.16104       -1.93079        1.48545
B          5.57494       -0.43117        1.31697
B          5.60408        1.11738        1.15008
B         -0.85182       -0.78893       -0.37806
