45
isomer_2886.log	Energy: -113763.9254547
B         -3.00358       -0.74672       -1.77340
B         -3.62515       -2.02007       -0.81447
B         -2.49673       -2.92687        0.08718
B         -0.81845       -2.90591       -0.58009
B         -1.35678       -0.33698       -1.05933
B          1.39261       -0.99281       -1.28496
B          0.17591       -3.85977        0.42753
B         -2.79525        0.82606       -1.42761
B          0.86209       -2.54855       -0.60785
B         -3.95852       -0.39188       -0.41919
B         -1.30778       -3.91046        0.55624
B          1.77864       -3.48243        0.40545
B          2.37308       -2.10661       -0.26032
B          3.87284       -1.55469        0.31529
B          0.51593        1.93005       -1.18415
B          2.06204        2.30104       -0.69158
B          3.26183        1.18904       -0.38155
B          4.45818       -0.03154       -0.06493
B          4.52718        1.60197        0.64660
B          3.44407        2.71027        0.24874
B          2.26226        3.78537        0.37720
B          0.78659        3.36933       -0.40547
B          0.99085        4.54050        0.67473
B         -1.98458        3.59424        0.38415
B         -0.52605        4.20773        0.45615
B         -2.43410        2.21543       -0.64563
B         -3.09030        2.58982        0.93595
B         -3.65127        1.19530        0.15960
B         -0.83910        2.81365       -0.46188
B         -1.92122       -1.98862       -1.48197
B          3.02431       -0.55117       -0.77292
B         -1.07576        1.29360       -1.26608
B          3.30928       -3.09679        0.85369
B         -3.62730       -1.89019        0.94905
B         -3.41965       -0.14454        1.23069
B         -3.64886        1.47843        1.87582
B         -4.02169        0.21653        2.72117
B         -4.02103       -1.20583        2.33959
B          1.77397        0.64441       -1.07246
B         -2.32951       -1.08143        0.12327
B         -0.20740       -1.64482       -1.57842
B          4.63223       -2.55283        1.32467
B          5.19766       -1.11033        1.28643
B          5.28625        0.41899        1.23879
B          0.17227        0.16006       -1.38374
