45
isomer_2887.log	Energy: -112877.8250972
B         -2.57999        1.71395        0.38721
B         -2.56513        3.35210        0.00794
B         -1.15480        4.17923       -0.22364
B          0.29589        3.34357        0.33741
B         -1.12490        0.81876        0.70384
B          1.74913        0.84205        0.81141
B          1.69314        4.12635       -0.34030
B         -4.03991        0.84301        0.30198
B          1.67770        2.44678        0.25092
B         -3.97315        2.53507       -0.15356
B          0.27084        4.79308       -0.49043
B          3.12329        3.27628       -0.34404
B          3.14191        1.65454        0.22187
B          4.60366        0.83883       -0.26390
B          0.30891       -1.71111        0.86566
B          1.69477       -2.40891        0.24984
B          3.15337       -1.60639        0.22114
B          4.60935       -0.78020       -0.26427
B          4.44913       -2.33837       -0.51112
B          3.14614       -3.22796       -0.34549
B          1.72200       -4.08806       -0.34214
B          0.31929       -3.31542        0.33592
B          0.30443       -4.76471       -0.49257
B         -2.54160       -3.34391        0.00645
B         -1.12550       -4.16101       -0.22550
B         -2.56797       -1.70608        0.38645
B         -3.95533       -2.53673       -0.15469
B         -4.03398       -0.84539        0.30161
B         -1.13624       -2.52537        0.55988
B         -1.15406        2.54321        0.56102
B          3.22757        0.12427        0.61879
B         -1.11921       -0.80083        0.70347
B          4.43249        2.39594       -0.51006
B         -5.29067        1.72580       -0.66793
B         -5.28386        0.09460       -0.43435
B         -5.27850       -1.73651       -0.66870
B         -6.44252       -0.78565       -1.27963
B         -6.44797        0.76706       -1.27928
B          1.75491       -0.80397        0.81104
B         -2.23463       -0.18116        1.70497
B          0.29679        1.73899        0.86643
B          5.94518        1.69025       -0.71282
B          6.14675       -0.02228       -0.77671
B          5.95510       -1.75294       -0.78421
B          0.02818       -0.40075        0.05007
