45
isomer_2888.log	Energy: -113420.4133207
B          2.50738       -1.74670        0.26789
B          2.37444       -3.35545       -0.30083
B          0.93604       -4.13982       -0.34153
B         -0.41827       -3.29046        0.24259
B          1.19031       -0.79923        0.69891
B         -1.68588       -0.68555        1.10135
B         -1.88981       -4.07900       -0.12305
B          3.88205       -0.98053       -0.01126
B         -1.85011       -2.43537        0.58159
B          3.79876       -2.59257       -0.38924
B         -0.50507       -4.73063       -0.39572
B         -3.21966       -3.17866        0.03071
B         -3.19557       -1.54642        0.52440
B         -4.54057       -0.66996        0.02341
B         -0.22473        1.76986        0.93073
B         -1.52296        2.59597        0.16693
B         -2.93191        1.74166       -0.07623
B         -4.44897        1.02080       -0.06752
B         -4.19753        2.54195       -0.89680
B         -2.81620        3.37459       -0.51053
B         -1.43811        4.18018       -0.41464
B         -0.12281        3.42977        0.57718
B          0.02189        4.68119       -0.44064
B          2.70765        3.19620        0.07439
B          1.36339        4.09614       -0.04319
B          2.67565        1.58845        0.72495
B          3.96567        2.27399       -0.09849
B          3.98851        0.69420        0.30191
B          1.31199        2.52312        0.65453
B          1.10577       -2.55556        0.37118
B         -3.15045        0.12740        0.59990
B          1.21319        0.78685        1.00305
B         -4.57278       -2.37530       -0.33479
B          5.17092       -1.80504       -0.78467
B          5.31541       -0.20961       -0.12566
B          5.36420        1.44731       -0.43513
B          6.44666        0.59224       -1.05066
B          6.28754       -0.88194       -1.27998
B         -1.48328        0.82256        0.14073
B         -0.28081        0.11854        1.61275
B         -0.33040       -1.68404        0.76920
B         -5.62022       -1.44283       -0.88379
B         -5.66978        0.10033       -1.03184
B         -5.33340        1.62265       -1.25515
B         -0.17815       -0.14127       -0.10692
