45
isomer_2889.log	Energy: -112574.5645129
B         -2.61724        1.70217        0.39432
B         -2.61024        3.33783        0.00423
B         -1.20408        4.16876       -0.23882
B          0.25216        3.34231        0.32150
B         -1.15742        0.81461        0.71060
B          1.71694        0.84949        0.80573
B          1.64352        4.12589       -0.36731
B         -4.07418        0.82518        0.32106
B          1.63701        2.45021        0.23501
B         -4.01581        2.51444       -0.14587
B          0.21807        4.78623       -0.51573
B          3.07687        3.28124       -0.37157
B          3.10409        1.66334        0.20490
B          4.56686        0.84999       -0.28174
B          0.28671       -1.70870        0.88292
B          1.67259       -2.40529        0.26578
B          3.12798       -1.59745        0.22557
B          4.57872       -0.76898       -0.27148
B          4.42340       -2.32933       -0.50740
B          3.12453       -3.22274       -0.33036
B          1.70371       -4.08819       -0.31526
B          0.30096       -3.31641        0.36370
B          0.28810       -4.77117       -0.45517
B         -2.56118       -3.35790        0.04666
B         -1.14297       -4.17115       -0.18597
B         -2.59218       -1.71771        0.41599
B         -3.97865       -2.55715       -0.11374
B         -4.06181       -0.86316        0.33176
B         -1.15662       -2.53042        0.58869
B         -1.19375        2.53796        0.55657
B          3.19727        0.13606        0.61151
B         -1.14555       -0.80491        0.72086
B          4.38871        2.40478       -0.53740
B         -5.33241        1.69681       -0.64927
B         -5.31838        0.06722       -0.40501
B         -5.30704       -1.76536       -0.62733
B         -6.47726       -0.82296       -1.23952
B         -6.48864        0.72969       -1.24935
B          1.72900       -0.79646        0.81616
B         -0.91253        0.53133        1.81778
B          0.26143        1.74127        0.86105
B          5.90320        1.70351       -0.74198
B          6.11103       -0.00863       -0.79547
B          5.92596       -1.74001       -0.79077
B          0.10909       -0.91626       -0.36581
