45
isomer_0289.log	Energy: -113384.8629094
B          2.57251       -1.67795        0.63044
B          2.64183       -3.22742       -0.56861
B          1.30557       -4.01487       -0.70100
B         -0.06009       -3.23043        0.13714
B          1.40042       -0.54191        1.27579
B         -1.60608       -0.81282        0.94527
B         -1.47205       -4.06030       -0.36205
B          3.81809       -0.73790        0.15224
B         -1.55563       -2.53212        0.57571
B          3.80465       -2.25667       -0.44399
B         -0.12615       -4.59870       -0.71859
B         -2.85533       -3.27114       -0.20874
B         -3.00188       -1.74440        0.32651
B         -4.41403       -0.91347       -0.18152
B         -0.40943        1.90803        1.02681
B         -1.83353        2.54764        0.49691
B         -3.17355        1.66605        0.23274
B         -4.56857        0.73446       -0.05994
B         -4.42233        2.35676       -0.72108
B         -3.17441        3.26234       -0.26742
B         -1.82920        4.11518       -0.44627
B         -0.43148        3.42930        0.32853
B         -0.44236        4.71554       -0.60639
B          2.38526        3.49897       -0.02751
B          1.00397        4.19948       -0.26566
B          2.44372        1.76398        0.59390
B          3.64484        2.63818       -0.24358
B          3.78598        1.02379        0.17256
B          1.07147        2.66591        0.59241
B          1.57341       -3.10425        0.66047
B         -3.22022       -0.05859        0.62485
B          1.12744        1.04932        1.16374
B         -4.23759       -2.54606       -0.66485
B          5.12896       -1.39718       -0.81663
B          5.08450        0.21786       -0.33396
B          4.99339        1.85100       -0.72006
B          6.09765        1.00420       -1.37961
B          6.17493       -0.47678       -1.39957
B         -1.72908        0.84070        0.76494
B          1.40050       -2.00682        1.77934
B         -0.13953       -1.79423        1.12276
B         -5.40050       -1.71779       -1.15147
B         -5.65690       -0.17232       -1.14734
B         -5.47448        1.36662       -1.22207
B         -0.22467        0.03886        1.05484
