45
isomer_2892.log	Energy: -113257.5287545
B         -2.50560        1.73970        0.45850
B         -2.49893        3.46214       -0.01303
B         -1.12693        4.23397       -0.15031
B          0.32879        3.44441        0.41157
B         -1.14339        1.00302        0.85921
B          1.66843        0.85225        0.85615
B          1.72875        4.16195       -0.32019
B         -3.88698        0.91672        0.27510
B          1.74811        2.53427        0.31902
B         -3.81089        2.57621       -0.15421
B          0.31442        4.78341       -0.44143
B          3.12397        3.27328       -0.31819
B          3.13056        1.69228        0.19584
B          4.49309        0.77907       -0.28032
B          0.20481       -1.69593        0.76907
B          1.66340       -2.55834        0.23826
B          3.05288       -1.72738        0.18983
B          4.45029       -0.88212       -0.17868
B          4.47098       -2.52587       -0.53524
B          3.03837       -3.35996       -0.24867
B          1.59756       -4.19719       -0.23506
B          0.20391       -3.39176        0.40513
B          0.16257       -4.75979       -0.38077
B         -2.66151       -3.39049        0.06615
B         -1.27498       -4.22114       -0.08027
B         -2.62607       -1.66447        0.39822
B         -4.00322       -2.44707       -0.15303
B         -3.96141       -0.81966        0.33850
B         -1.29832       -2.60148        0.55789
B         -1.15601        2.66551        0.65145
B          3.15676        0.01341        0.48746
B         -1.74040       -0.39817        0.89345
B          4.53358        2.45611       -0.58272
B         -5.08582        1.73622       -0.70078
B         -5.12424        0.09293       -0.39847
B         -5.26761       -1.60968       -0.61384
B         -6.30835       -0.64871       -1.24444
B         -6.20451        0.84273       -1.32005
B          1.67211       -0.87818        0.61206
B         -0.87785       -1.06919       -0.22353
B          0.31956        1.81665        0.99004
B          5.73179        1.51564       -0.88352
B          5.86552       -0.05870       -0.86031
B          5.65845       -1.64892       -0.85316
B          0.24437       -0.03766        1.19732
