45
isomer_2894.log	Energy: -113650.9169199
B          2.55134        1.72449       -0.35529
B          2.48664        3.32688        0.10658
B          1.07821        4.14875        0.18467
B         -0.32274        3.38877       -0.43755
B          1.12209        0.85049       -0.80595
B         -1.74122        0.81768       -0.82733
B         -1.73102        4.13783        0.29958
B          4.00958        0.88645       -0.33248
B         -1.75835        2.50793       -0.35693
B          3.89246        2.52197        0.27774
B         -0.31705        4.73630        0.43493
B         -3.10055        3.28252        0.28083
B         -3.15385        1.69530       -0.23027
B         -4.53863        0.81769        0.19409
B         -0.33963       -1.84191       -1.12942
B         -1.75305       -2.53920       -0.35378
B         -3.14745       -1.72321       -0.22177
B         -4.52679       -0.85253        0.17898
B         -4.47865       -2.48550        0.65983
B         -3.06027       -3.29338        0.35416
B         -1.67769       -4.10333        0.39533
B         -0.29169       -3.38648       -0.41714
B         -0.24385       -4.67616        0.53188
B          2.53846       -3.31338        0.05354
B          1.13591       -4.10621        0.22426
B          2.57049       -1.75800       -0.50919
B          3.91012       -2.50771        0.22252
B          4.03235       -0.87749       -0.31779
B          1.14496       -2.57655       -0.70365
B          1.16361        2.57451       -0.61436
B         -3.25610       -0.00368       -0.57197
B          1.18156       -0.88645       -0.96094
B         -4.50878        2.48107        0.59412
B          5.17459        1.72341        0.73492
B          5.22038        0.03702        0.43540
B          5.17145       -1.66364        0.72214
B          6.24320       -0.72605        1.39307
B          6.25745        0.78629        1.39274
B         -1.74197       -0.87819       -0.84840
B          2.61415        0.01336       -0.80228
B         -0.32966        1.80754       -0.97760
B         -5.67581        1.56331        0.99248
B         -5.83978       -0.00355        1.01434
B         -5.62953       -1.57358        1.06617
B         -0.33491       -0.05335       -0.97018
