45
isomer_2895.log	Energy: -113106.2488068
B          2.56839       -1.62845        0.55188
B          2.54199       -3.31102        0.11450
B          1.18661       -4.10477       -0.13178
B         -0.27954       -3.35076        0.34418
B          1.22058       -0.81300        1.04283
B         -1.67918       -0.81852        0.81203
B         -1.67054       -4.11686       -0.38553
B          3.93488       -0.81739        0.37587
B         -1.70745       -2.47634        0.22062
B          3.89838       -2.43848       -0.06514
B         -0.24735       -4.69019       -0.48011
B         -3.04181       -3.22584       -0.38266
B         -3.08859       -1.68665        0.15998
B         -4.48416       -0.81558       -0.25279
B         -0.30502        1.69356        0.90746
B         -1.68600        2.46622        0.30066
B         -3.07959        1.68341        0.23907
B         -4.45008        0.84573       -0.20424
B         -4.45663        2.54290       -0.54935
B         -3.02815        3.26016       -0.28807
B         -1.66507        4.12574       -0.31980
B         -0.26564        3.37531        0.36134
B         -0.24736        4.71119       -0.46893
B          2.57860        3.38615       -0.01287
B          1.21918        4.16486       -0.20897
B          2.55727        1.67959        0.34115
B          3.91710        2.48947       -0.21414
B          3.95270        0.89276        0.28845
B          1.20693        2.61305        0.49864
B          1.18605       -2.54713        0.59228
B         -3.15824       -0.02367        0.56165
B          1.12365        0.88812        0.56669
B         -4.49818       -2.50837       -0.63813
B          5.16346       -1.70038       -0.61880
B          5.17239       -0.00717       -0.41219
B          5.17863        1.65029       -0.69785
B          6.30222        0.68917       -1.29973
B          6.28645       -0.81282       -1.27185
B         -1.67665        0.83755        0.85022
B          0.66540       -0.61797       -0.42154
B         -0.32670       -1.69077        0.87605
B         -5.69225       -1.60344       -0.85911
B         -5.84418        0.00934       -0.83552
B         -5.65859        1.59663       -0.82858
B          0.37611        0.20435        1.84210
