45
isomer_2896.log	Energy: -113403.2284035
B          2.53869        1.75526       -0.65614
B          2.51797        3.44225       -0.08876
B          1.17791        4.23551        0.01815
B         -0.26695        3.45832       -0.54687
B          1.20238        0.94666       -1.18932
B         -1.72488        0.92958       -0.82656
B         -1.62871        4.23098        0.25654
B          3.84281        0.97423       -0.12183
B         -1.71528        2.62827       -0.51818
B          3.78542        2.59233        0.16542
B         -0.21205        4.81320        0.32249
B         -2.98626        3.39094        0.31519
B         -3.07799        1.78931       -0.17375
B         -4.47867        0.89805        0.23388
B         -0.33598       -1.65661       -1.14095
B         -1.70133       -2.46284       -0.64431
B         -3.11950       -1.65205       -0.32024
B         -4.42702       -0.77562        0.27584
B         -4.27754       -2.43803        0.73659
B         -2.94121       -3.23565        0.23068
B         -1.61320       -4.05213        0.15865
B         -0.23123       -3.28130       -0.64118
B         -0.16120       -4.63542        0.30906
B          2.39946       -3.20996        0.19782
B          1.17681       -4.04614        0.78439
B          2.43998       -1.48968       -0.42174
B          3.71065       -2.32218        0.35745
B          3.79320       -0.74566       -0.00987
B          1.20370       -2.41756       -0.92718
B          1.20290        2.64611       -0.83484
B         -3.24585        0.05490       -0.59502
B          1.22021       -0.69656       -1.13591
B         -4.23784        2.52062        0.86293
B          5.06684        1.76723        0.78554
B          5.11518        0.11818        0.47058
B          5.01855       -1.52075        0.93257
B          6.05226       -0.61913        1.60861
B          6.06682        0.88738        1.55639
B         -1.72636       -0.74534       -0.98552
B          1.20628       -4.09220       -0.80092
B         -0.30855        1.89988       -1.13003
B         -5.22912        1.53969        1.48366
B         -5.47840        0.00431        1.42288
B         -5.33798       -1.54212        1.34135
B         -0.27495        0.11371       -1.11759
