45
isomer_2897.log	Energy: -112308.4584976
B          2.61764       -1.65563        0.34152
B          2.61264       -3.28673       -0.06725
B          1.20750       -4.11645       -0.32016
B         -0.24984       -3.29814        0.24917
B          1.15670       -0.77342        0.66751
B         -1.71763       -0.81271        0.76145
B         -1.64011       -4.07541       -0.44894
B          4.07358       -0.77617        0.27869
B         -1.63570       -2.40672        0.17249
B          4.01729       -2.46004       -0.20754
B         -0.21385       -4.73236       -0.60451
B         -3.07444       -3.23242       -0.44394
B         -3.10368       -1.62125        0.15098
B         -4.56727       -0.80408       -0.32674
B         -0.29039        1.74608        0.86826
B         -1.67691        2.44807        0.25875
B         -3.13136        1.63906        0.20891
B         -4.58101        0.81465       -0.29798
B         -4.42743        2.37778       -0.51600
B         -3.12965        3.27061       -0.32840
B         -1.70984        4.13746       -0.30302
B         -0.30637        3.35960        0.36745
B         -0.29498        4.82364       -0.43473
B          2.55580        3.40802        0.05169
B          1.13671        4.22223       -0.17201
B          2.58861        1.76375        0.40226
B          3.97424        2.61080       -0.11745
B          4.05925        0.91192        0.30868
B          1.15206        2.57277        0.58384
B          1.19508       -2.49485        0.49381
B         -3.19874       -0.09882        0.57499
B          1.14296        0.84586        0.69628
B         -4.38725       -2.35564       -0.60010
B          5.33307       -1.63520       -0.70120
B          5.31709       -0.00852       -0.43833
B          5.30368        1.82647       -0.63970
B          6.47515        0.89248       -1.26229
B          6.48833       -0.65994       -1.28987
B         -1.73160        0.83299        0.79068
B          0.53672       -1.47016        2.71557
B         -0.26111       -1.70338        0.80698
B         -5.90250       -1.65383       -0.79707
B         -6.11230        0.05857       -0.83105
B         -5.92923        1.79000       -0.80650
B          0.32907       -0.22095        0.20486
