45
isomer_2898.log	Energy: -113446.9614203
B         -2.60720        1.61732        0.60620
B         -2.57830        3.26127       -0.17780
B         -1.21723        4.08223       -0.31697
B          0.22002        3.36606        0.28981
B         -1.25458        0.86047        1.05148
B          1.57731        0.80382        0.24896
B          1.61620        4.16141       -0.45030
B         -3.99015        0.85738        0.25711
B          1.65274        2.56630        0.39335
B         -3.89320        2.41572       -0.22712
B          0.20118        4.69130       -0.60664
B          3.00084        3.35020       -0.32691
B          3.03869        1.74794        0.13125
B          4.48916        0.85289        0.17748
B          0.35786       -1.68848        0.85003
B          1.56468       -2.35053       -0.36442
B          2.93723       -1.71032        0.38568
B          4.41318       -0.84050       -0.00359
B          4.37040       -2.50149       -0.44649
B          2.97867       -3.28193       -0.33324
B          1.61913       -4.07881       -0.50273
B          0.23388       -3.24727        0.20152
B          0.17251       -4.59379       -0.64268
B         -2.58879       -3.25724       -0.05338
B         -1.22554       -3.98745       -0.30382
B         -2.59548       -1.58190        0.56830
B         -3.93453       -2.44465       -0.07078
B         -4.02360       -0.88288        0.32460
B         -1.22937       -2.45383        0.58743
B         -1.24875        2.50386        0.40379
B          3.09117        0.00914        0.68419
B         -1.23609       -0.79020        0.94314
B          4.36794        2.49887       -0.56373
B         -5.26707        1.61591       -0.59102
B         -5.35180        0.00038       -0.08584
B         -5.32721       -1.65777       -0.46189
B         -6.42777       -0.78552       -1.06834
B         -6.37748        0.70196       -1.15943
B          1.74515       -0.78153        1.40448
B          0.26260        0.04045        1.12119
B          0.26044        1.79579        0.86000
B          5.46083        1.49652       -0.89662
B          5.70325       -0.04255       -0.76550
B          5.56843       -1.61914       -0.73182
B          1.47063       -0.71944       -0.33893
