45
isomer_2899.log	Energy: -113401.6154977
B         -2.42423        1.74961        0.25339
B         -2.41067        3.50372       -0.16337
B         -1.03463        4.26607       -0.17410
B          0.41838        3.43405        0.54791
B         -1.04419        0.98858        0.43446
B          1.70420        0.77360        0.85933
B          1.85137        4.10963       -0.12852
B         -3.77920        0.99412       -0.00973
B          1.86225        2.46710        0.53393
B         -3.72395        2.60101       -0.40564
B          0.45112        4.72850       -0.34452
B          3.21157        3.21228       -0.07791
B          3.24749        1.61788        0.37119
B          4.59910        0.65707       -0.00552
B          0.33306       -1.78515        1.00126
B          1.62279       -2.54977        0.23119
B          3.04007       -1.78966        0.03340
B          4.48342       -0.97624       -0.23799
B          4.28480       -2.57481       -0.88558
B          2.87788       -3.33935       -0.50906
B          1.40840       -4.12050       -0.48904
B          0.11936       -3.32889        0.31292
B         -0.01898       -4.68760       -0.47768
B         -2.73094       -3.29038        0.22015
B         -1.38983       -4.06616        0.00269
B         -2.66963       -1.60937        0.57296
B         -4.05830       -2.41887        0.05176
B         -3.88866       -0.71810        0.17344
B         -1.28012       -2.46333        0.84539
B         -1.05967        2.65036        0.35694
B          3.23090       -0.12884        0.52788
B         -1.83838       -0.28078        0.50214
B          4.55346        2.31997       -0.49475
B         -5.02874        1.78159       -0.92233
B         -5.06211        0.12546       -0.54826
B         -5.25801       -1.55865       -0.56615
B         -6.28653       -0.61073       -1.27603
B         -6.19108        0.87970       -1.42697
B          1.67079       -0.86231        0.78381
B          0.17117        0.02213        1.35261
B          0.32606        1.80557        0.93783
B          5.57506        1.36437       -1.05605
B          5.72166       -0.17395       -1.15667
B          5.45547       -1.68428       -1.27574
B         -1.04199       -1.03466        1.72505
