45
isomer_0290.log	Energy: -113498.3418140
B         -2.36483        1.55050       -0.14278
B         -2.45803        3.29959       -0.17044
B         -1.06945        4.10558       -0.26905
B          0.36919        3.36351        0.35200
B         -1.02113        0.81475        0.69679
B          1.73717        0.80958        0.77520
B          1.76464        4.14125       -0.27227
B         -3.83763        0.89171        0.37189
B          1.78759        2.48730        0.39874
B         -3.84143        2.49972       -0.27835
B          0.37372        4.72723       -0.45403
B          3.15650        3.28348       -0.16762
B          3.23255        1.71963        0.30609
B          4.66707        0.82900        0.09424
B          0.37938       -1.70890        0.85358
B          1.78623       -2.48794        0.39698
B          3.23146       -1.72099        0.30573
B          4.66529       -0.83024        0.08980
B          4.53139       -2.47098       -0.49769
B          3.15449       -3.28388       -0.17080
B          1.76229       -4.14108       -0.27449
B          0.36753       -3.36376        0.35316
B          0.37094       -4.72659       -0.45470
B         -2.46004       -3.29910       -0.16759
B         -1.07180       -4.10519       -0.26798
B         -2.36581       -1.55002       -0.14186
B         -3.84297       -2.49866       -0.27603
B         -3.83833       -0.89036        0.37323
B         -1.11437       -2.56837        0.44136
B         -1.11297        2.56842        0.43895
B          3.27069       -0.00076        0.67873
B         -1.02099       -0.81460        0.69650
B          4.53295        2.47020       -0.49464
B         -5.18900        1.70659       -0.44480
B         -5.12456        0.00099       -0.25682
B         -5.19014       -1.70500       -0.44292
B         -6.44136       -0.76446       -0.70121
B         -6.44086        0.76656       -0.70219
B          1.73712       -0.81080        0.77709
B         -2.11056        0.00008       -0.60279
B          0.38002        1.70815        0.85176
B          5.66915        1.54278       -0.91210
B          5.86336       -0.00084       -0.88799
B          5.66850       -1.54454       -0.91470
B         -2.54297        0.00047        1.11401
