45
isomer_2900.log	Energy: -113441.9671295
B          2.47467       -1.74155        0.39392
B          2.66127       -3.19338       -0.79641
B          1.38445       -4.10427       -0.81176
B          0.07545       -3.24223        0.39409
B          1.28600       -0.63248        1.02390
B         -1.68409       -0.78874        1.00767
B         -1.38114       -3.98009       -0.24341
B          3.68369       -0.64426       -0.00706
B         -1.55344       -2.48823        0.56692
B          3.73862       -2.13532       -0.65164
B         -0.05040       -4.50025       -0.66174
B         -2.82988       -3.27225       -0.16969
B         -3.02522       -1.74337        0.31677
B         -4.41185       -0.90704       -0.21481
B         -0.39899        1.88181        0.97223
B         -1.84826        2.55136        0.46176
B         -3.21436        1.67906        0.16682
B         -4.64450        0.72814        0.04542
B         -4.49846        2.36331       -0.68878
B         -3.19395        3.24741       -0.34764
B         -1.83434        4.13217       -0.42000
B         -0.44096        3.42708        0.33886
B         -0.45515        4.75238       -0.56108
B          2.37356        3.45140       -0.11272
B          0.97906        4.21728       -0.27993
B          2.45090        1.82314        0.46654
B          3.79758        2.69164       -0.16045
B          3.73053        1.01905       -0.01535
B          1.08877        2.68619        0.57195
B          1.81891       -3.42177        0.59142
B         -3.25536       -0.02786        0.65351
B          1.14810        0.95896        1.03447
B         -4.26531       -2.56328       -0.59894
B          5.16432       -1.31580       -0.68273
B          5.17665        0.23764       -0.07963
B          5.12855        1.93586       -0.51035
B          6.24578        1.00937       -1.06228
B          6.37015       -0.47232       -1.00007
B         -1.77449        0.86123        0.72410
B          1.16984       -2.28421        1.41984
B         -0.27767       -1.65386        1.30387
B         -5.44572       -1.75463       -1.08701
B         -5.69486       -0.21154       -1.10799
B         -5.51922        1.32953       -1.14788
B         -0.24922        0.09474        0.96529
