45
isomer_2901.log	Energy: -112144.3681568
B         -2.62056       -1.66313       -0.55732
B         -2.61315       -3.30538       -0.19598
B         -1.20702       -4.13860        0.03924
B          0.25075       -3.30053       -0.49944
B         -1.16047       -0.76824       -0.85090
B          1.71436       -0.79768       -0.93273
B          1.63987       -4.09427        0.18223
B         -4.07905       -0.78947       -0.47572
B          1.63391       -2.40828       -0.39060
B         -4.02057       -2.48659       -0.03823
B          0.21464       -4.75898        0.31214
B          3.07200       -3.24794        0.20825
B          3.09973       -1.62014       -0.33959
B          4.55901       -0.81354        0.16833
B          0.28095        1.75960       -0.97190
B          1.66287        2.44705       -0.33593
B          3.11918        1.64054       -0.30288
B          4.56867        0.80537        0.18656
B          4.41003        2.36113        0.44908
B          3.11078        3.25581        0.28148
B          1.68885        4.11953        0.27471
B          0.29046        3.35796       -0.42447
B          0.27163        4.79809        0.41975
B         -2.57323        3.39012       -0.12059
B         -1.15729        4.20101        0.13314
B         -2.60016        1.75663       -0.51881
B         -3.99033        2.58483        0.01887
B         -4.06898        0.89881       -0.45671
B         -1.16492        2.57413       -0.67027
B         -1.19514       -2.49407       -0.72733
B          3.19274       -0.08583       -0.71886
B         -1.15081        0.85123       -0.83266
B          4.38180       -2.37282        0.39578
B         -5.34072       -1.67966        0.47307
B         -5.32779       -0.04601        0.25753
B         -5.32007        1.78239        0.51205
B         -6.49191        0.82786        1.10193
B         -6.50117       -0.72474        1.08445
B          1.72417        0.84822       -0.91419
B         -0.16424       -0.90320        3.22679
B          0.26038       -1.69025       -1.01074
B          5.89432       -1.67326        0.61997
B          6.09949        0.03794        0.70452
B          5.91203        1.76890        0.72932
B         -0.30505       -0.20452        0.50663
