45
isomer_2902.log	Energy: -112822.3349256
B         -2.69869        1.70568        0.41253
B         -2.44367        3.38817        0.05786
B         -1.00280        4.15151       -0.15670
B          0.46766        3.40273        0.34425
B         -1.60375        0.62988        0.65392
B          1.89236        0.83423        0.81042
B          1.86982        4.12171       -0.39023
B         -4.06142        0.92117        0.31652
B          1.93208        2.51221        0.20818
B         -3.92415        2.57876       -0.11375
B          0.44955        4.69560       -0.46617
B          3.27166        3.26456       -0.42319
B          3.27204        1.66396        0.16218
B          4.67029        0.73922       -0.30263
B          0.22526       -1.78193        0.84722
B          1.66519       -2.49160        0.21585
B          3.10713       -1.72991        0.19052
B          4.54584       -0.94280       -0.27555
B          4.39995       -2.55596       -0.59601
B          2.97057       -3.32911       -0.38279
B          1.54531       -4.11662       -0.38743
B          0.15423       -3.36633        0.27411
B          0.11764       -4.66809       -0.53792
B         -2.73456       -3.28862       -0.08004
B         -1.29657       -4.09355       -0.28937
B         -2.78729       -1.64409        0.34623
B         -4.13064       -2.39050       -0.23561
B         -4.13461       -0.78683        0.27074
B         -1.38439       -2.53649        0.49303
B         -1.18165        2.58724        0.57603
B          3.28462        0.00300        0.58099
B         -1.48011       -0.78861        0.66579
B          4.66523        2.38307       -0.63618
B         -5.22419        1.86869       -0.65513
B         -5.29183        0.18465       -0.45779
B         -5.34510       -1.53446       -0.72435
B         -6.40532       -0.52356       -1.31855
B         -6.38725        0.95844       -1.30072
B          1.79940       -0.87428        0.80126
B         -0.81915       -1.36276        1.98593
B          0.61092        1.81130        0.91022
B          5.90787        1.42529       -0.80026
B          5.97495       -0.16900       -0.80276
B          5.73051       -1.75656       -0.80474
B         -0.19296        0.90058        1.01413
