45
isomer_2903.log	Energy: -111421.0851154
B         -2.62648       -1.56461       -0.47727
B         -2.64125       -3.20559       -0.11045
B         -1.24654       -4.05656        0.12923
B          0.22282       -3.23968       -0.41049
B         -1.15432       -0.69011       -0.77209
B          1.71995       -0.75789       -0.85037
B          1.60051       -4.04945        0.27549
B         -4.07337       -0.67144       -0.40034
B          1.61755       -2.36546       -0.30297
B         -4.03788       -2.36770        0.04287
B          0.16645       -4.69479        0.40591
B          3.04370       -3.22208        0.30040
B          3.09363       -1.59664       -0.25283
B          4.56287       -0.80773        0.25415
B          0.32059        1.81799       -0.89979
B          1.71076        2.48922       -0.26446
B          3.15622        1.66361       -0.22697
B          4.59395        0.81096        0.26699
B          4.45563        2.36956        0.52413
B          3.16854        3.28080        0.35198
B          1.75818        4.16324        0.34063
B          0.35063        3.41791       -0.35768
B          0.34991        4.86099        0.48170
B         -2.51272        3.48902       -0.05735
B         -1.08646        4.28193        0.19537
B         -2.56083        1.85470       -0.45015
B         -3.94053        2.70303        0.08309
B         -4.04096        1.01661       -0.38695
B         -1.11471        2.65261       -0.60261
B         -1.21200       -2.41491       -0.64281
B          3.20739       -0.06497       -0.63710
B         -1.12324        0.92913       -0.75924
B          4.36476       -2.36376        0.48659
B         -5.34781       -1.54166        0.54990
B         -5.31299        0.09094        0.32893
B         -5.28135        1.91993        0.57736
B         -6.46641        0.98298        1.16900
B         -6.49621       -0.56941        1.15669
B          1.75154        0.88778       -0.83731
B         -1.28877       -2.87128        0.98665
B          0.25437       -1.63139       -0.92715
B          5.88615       -1.68354        0.71025
B          6.11388        0.02507        0.78934
B          5.94933        1.75843        0.80815
B          0.14553       -1.03579       -0.58844
