45
isomer_2904.log	Energy: -113353.2945408
B          2.18586        1.86471       -0.28447
B          1.85407        3.36328        0.36246
B          0.43489        4.09736        0.20830
B         -0.82028        3.21725       -0.63576
B          0.94563        0.87848       -0.94677
B         -2.01809        0.60744       -0.98015
B         -2.32479        3.89876       -0.10574
B          3.62084        1.16095        0.24594
B         -2.18393        2.27209       -0.80869
B          3.26887        2.70952        0.80066
B         -1.01568        4.60444        0.18065
B         -3.61410        2.94055       -0.13443
B         -3.52500        1.35476       -0.44316
B         -4.77981        0.28786        0.13158
B          0.82057       -0.66657       -1.52956
B         -1.45204       -2.60430       -0.29492
B         -2.97077       -1.99757        0.03812
B         -4.52108       -1.35125        0.32694
B         -3.91782       -2.79054        1.14893
B         -2.50360       -3.43178        0.67538
B         -0.97008       -3.99099        0.60658
B          0.15596       -3.00252       -0.40702
B          0.48084       -4.25504        0.57454
B          3.04137       -2.88012       -0.49474
B          1.71697       -3.60786       -0.10934
B          3.22477       -1.36534       -1.23682
B          4.42068       -2.08634       -0.19640
B          4.01953       -0.42977       -0.12710
B          1.61611       -2.18461       -0.99729
B          0.68540        2.50958       -0.51248
B         -3.39541       -0.37621       -0.60728
B          2.47547        0.24032       -0.77451
B         -4.80277        2.02481        0.46802
B          4.58530        2.04090        1.37886
B          5.03839        0.46229        0.86320
B          5.38457       -1.22674        0.69323
B          6.14350       -0.26257        1.73707
B          5.79528        1.18343        2.04254
B         -1.84072       -0.99596       -0.83201
B          2.16773       -0.74610       -2.14597
B         -0.64829        1.54338       -1.12625
B         -5.68628        1.03482        1.20005
B         -5.59511       -0.51287        1.42901
B         -5.10747       -1.96448        1.66399
B         -0.38947       -1.56745       -1.04520
