45
isomer_2910.log	Energy: -113458.6387176
B         -2.57121       -1.46639       -0.48409
B         -2.88454       -3.08939       -0.46085
B         -1.62073       -3.77940        0.13090
B         -0.02026       -3.27143       -0.47806
B         -1.06008       -0.71853       -0.70203
B          1.73432       -0.94738       -1.03068
B          1.08561       -3.63890        0.90521
B         -3.98189       -0.48735       -0.51660
B          1.52767       -2.55631       -0.35660
B         -4.18493       -2.17501       -0.23901
B         -0.44628       -3.61752        1.13309
B          2.61984       -3.22809        0.73917
B          2.97219       -1.87314       -0.15141
B          4.41933       -1.10985        0.25330
B          0.51685        1.62152       -0.85529
B          2.05682        2.35414       -0.77553
B          3.43703        1.46693       -0.63742
B          4.77573        0.43306       -0.28609
B          4.76006        2.09629        0.22479
B          3.47227        3.03127       -0.11433
B          2.20332        3.96986        0.07303
B          0.71032        3.28613       -0.34048
B          0.89713        4.58662        0.55321
B         -2.03273        3.44381        0.48222
B         -0.59208        4.08626        0.51444
B         -2.30859        1.92367       -0.27484
B         -3.49281        2.72284        0.59911
B         -3.71273        1.17045       -0.00364
B         -0.76775        2.49859       -0.08729
B         -1.35382       -2.55800       -1.25395
B          3.30112       -0.28717       -0.73240
B         -0.95913        0.94575       -0.84141
B          4.11947       -2.63403        0.98054
B         -5.41540       -1.31656        0.11558
B         -5.13439        0.39101        0.33819
B         -4.91712        2.00097        0.93831
B         -6.18146        1.11576        1.27098
B         -6.45174       -0.33610        0.85237
B          1.87408        0.66928       -0.95054
B         -2.51807        0.26443       -0.86993
B          0.22077       -1.65974       -1.07401
B          5.42662       -1.91873        1.20286
B          5.83048       -0.41885        0.95484
B          5.75011        1.09546        0.81237
B         -1.10341       -2.08622        0.44195
