45
isomer_2911.log	Energy: -113438.5979847
B         -2.50404        1.74439        0.56399
B         -2.46733        3.40467       -0.05379
B         -1.10642        4.17386       -0.25904
B          0.35074        3.40410        0.28038
B         -1.17153        0.94597        1.07672
B          1.74274        0.88018        0.70455
B          1.72361        4.14886       -0.46470
B         -3.81369        0.95563        0.20778
B          1.77756        2.55425        0.37518
B         -3.84845        2.61544       -0.04272
B          0.32179        4.74578       -0.57532
B          3.10863        3.30033       -0.39722
B          3.16778        1.72230        0.13222
B          4.61869        0.81215        0.02217
B          0.31722       -1.67085        1.32391
B          1.62054       -2.47726        0.58509
B          3.07548       -1.69096        0.38033
B          4.42547       -0.83516       -0.20211
B          4.33295       -2.49715       -0.55495
B          2.91978       -3.23591       -0.11791
B          1.49353       -3.95771       -0.24661
B         -0.00994       -3.24009        0.38099
B          0.17763       -4.45411       -0.71950
B         -2.57613       -3.20363       -0.82865
B         -1.24308       -4.02352       -0.88353
B         -2.43191       -1.73580        0.43320
B         -3.68478       -2.17970       -0.64144
B         -3.74545       -0.74676        0.09672
B         -1.75802       -3.39524        0.54524
B         -1.15558        2.65042        0.62578
B          3.26576        0.02160        0.67683
B         -1.24752       -0.66828        1.02239
B          4.42905        2.43673       -0.72987
B         -5.16573        1.84156       -0.45893
B         -5.18551        0.14780       -0.15201
B         -5.11624       -1.39531       -0.77530
B         -6.27396       -0.53583       -1.21186
B         -6.21436        0.95198       -1.15594
B          1.70843       -0.76980        1.02918
B         -1.10730       -2.32836        1.44869
B          0.35439        1.86767        0.94307
B          5.47628        1.42220       -1.18201
B          5.68288       -0.11073       -1.11829
B          5.48348       -1.66747       -1.06264
B          0.25258        0.07176        0.97993
