45
isomer_2916.log	Energy: -113428.5730271
B          2.48261        1.87413       -0.14117
B          2.41260        3.47210        0.27309
B          0.98674        4.27760        0.29786
B         -0.38926        3.46659       -0.31038
B          1.03078        0.89618       -0.47819
B         -1.68072        0.84417       -0.48555
B         -1.84244        4.24981        0.16276
B          3.95161        1.09166       -0.08587
B         -1.80291        2.57121       -0.36468
B          3.87250        2.72207        0.31990
B         -0.43687        4.86245        0.42029
B         -3.21276        3.42034       -0.02510
B         -3.23420        1.77403       -0.38374
B         -4.68524        0.94912       -0.38521
B         -0.28626       -1.76795       -0.38488
B         -1.73111       -2.46387        0.07047
B         -3.17067       -1.56216       -0.08872
B         -4.65133       -0.70324       -0.07871
B         -4.64839       -2.28672        0.51776
B         -3.27206       -3.14698        0.32858
B         -2.06668       -4.07338        0.39701
B         -0.25318       -3.50934       -0.05339
B         -0.91278       -5.01905        0.39784
B          2.78271       -3.18006       -0.25878
B          0.47486       -5.05884        0.09207
B          2.63464       -1.56076       -0.29501
B          4.16909       -2.29799       -0.20181
B          4.05074       -0.64626       -0.32174
B          1.22612       -2.49932       -0.41499
B          1.07494        2.64838       -0.31973
B         -3.20212        0.06664       -0.60832
B          2.49349        0.14263       -0.34454
B         -4.60225        2.62802        0.18682
B          5.26874        1.93809        0.56833
B          5.41956        0.28853       -0.00995
B          5.50616       -1.46068        0.10538
B          6.63616       -0.50035        0.66354
B          6.52933        1.00414        0.87064
B         -1.65125       -0.79155       -0.38219
B          1.60838       -4.13806       -0.07746
B         -0.36634        1.74798       -0.63316
B         -5.74532        1.69218        0.56812
B         -5.99598        0.17485        0.57234
B         -5.84152       -1.37462        0.72378
B          1.06986       -0.76171       -0.40332
