45
isomer_2917.log	Energy: -113378.3882749
B         -2.40696        1.79943        0.48649
B         -2.17844        3.24809       -0.49273
B         -0.72968        4.00094       -0.54727
B          0.56741        3.37779        0.37836
B         -1.09163        1.07307        1.12621
B          1.80929        0.77615        1.03488
B          2.04965        3.95853       -0.39948
B         -3.87699        1.09709        0.18695
B          1.98071        2.43580        0.54992
B         -3.53863        2.54962       -0.54041
B          0.70795        4.54742       -0.72756
B          3.34024        3.03974       -0.25229
B          3.31932        1.51807        0.44049
B          4.68379        0.58082        0.04992
B         -0.03721       -1.69711        0.95662
B          1.51262       -2.47225        0.26449
B          2.97613       -1.75137        0.28848
B          4.50486       -1.11373        0.01864
B          4.23602       -2.62028       -0.69057
B          2.72958       -3.24355       -0.50854
B          1.30320       -3.94438       -0.62097
B         -0.05765       -3.01001       -0.13047
B         -0.19758       -4.46220       -0.77311
B         -2.77010       -3.01997        0.18541
B         -1.54339       -3.78958       -0.52013
B         -2.73027       -1.27656        0.42356
B         -4.16645       -2.16947        0.16630
B         -4.15657       -0.56769        0.36998
B         -1.36576       -1.85512       -0.21341
B         -0.95065        2.66580        0.50343
B          3.28463       -0.17231        0.73715
B         -1.35125       -0.44075        0.75928
B          4.67549        2.17489       -0.52583
B         -5.03723        1.88180       -0.78148
B         -5.38472        0.41233       -0.04356
B         -5.49419       -1.33927       -0.30603
B         -6.42311       -0.39029       -1.05899
B         -6.24423        1.07567       -1.28102
B          1.57834       -0.89032        1.00325
B         -1.34178       -2.93101        1.09331
B          0.48887        1.84356        1.07882
B          5.79841        1.21934       -0.91297
B          5.82708       -0.32152       -0.93595
B          5.46438       -1.84003       -1.05963
B          0.23648        0.04282        1.22048
