45
isomer_2918.log	Energy: -113675.8862634
B         -2.56359       -1.73026       -0.53121
B         -2.51425       -3.30366        0.03669
B         -1.15760       -4.14892        0.10880
B          0.26853       -3.40302       -0.53947
B         -1.17042       -0.85117       -1.06854
B          1.71706       -0.84352       -0.78609
B          1.64125       -4.17014        0.25813
B         -3.98432       -0.84508       -0.22473
B          1.72390       -2.55159       -0.43022
B         -3.86974       -2.48467        0.27590
B          0.21885       -4.74779        0.35311
B          3.00797       -3.34121        0.27864
B          3.12836       -1.73372       -0.22031
B          4.54676       -0.89481        0.14443
B          0.36955        1.82495       -1.11709
B          1.80246        2.53240       -0.48890
B          3.17368        1.68015       -0.26038
B          4.53177        0.79702        0.23882
B          4.40750        2.44418        0.74887
B          3.09248        3.28020        0.26598
B          1.74879        4.14410        0.24592
B          0.35164        3.38449       -0.51410
B          0.34248        4.74595        0.35141
B         -2.42697        3.33522        0.03946
B         -1.04697        4.15756        0.12229
B         -2.50871        1.75976       -0.48796
B         -3.80918        2.53754        0.29273
B         -3.95624        0.91097       -0.21594
B         -1.11885        2.59003       -0.76490
B         -1.18650       -2.57783       -0.78933
B          3.29330       -0.01617       -0.60902
B         -1.12959        0.84862       -1.04152
B          4.32551       -2.49992        0.77073
B         -5.10417       -1.65100        0.84574
B         -5.19518        0.04512        0.52312
B         -5.06004        1.73937        0.86492
B         -6.08382        0.81492        1.61323
B         -6.10420       -0.70572        1.60632
B          1.78711        0.83035       -0.91244
B         -2.61002        0.01631       -0.74661
B          0.31237       -1.83078       -1.08739
B          5.37238       -1.56978        1.33819
B          5.62009       -0.03375        1.30456
B          5.47396        1.51830        1.30118
B          0.34260       -0.00301       -1.09302
