45
isomer_2919.log	Energy: -113289.0735519
B         -2.24048       -1.63272       -0.60205
B         -2.31738       -3.27139       -0.06548
B         -1.01272       -4.00896        0.18916
B          0.41541       -3.59635       -0.87688
B         -0.83434       -1.13929       -1.26398
B          1.46971       -0.85644       -0.90909
B          1.78423       -4.06006        0.30412
B         -3.69580       -0.84026       -0.22027
B          1.56956       -2.46559       -0.32377
B         -3.50634       -2.34480        0.37957
B          0.36759       -4.43104        0.57328
B          3.02145       -3.16190        0.32182
B          2.97821       -1.61844       -0.14058
B          4.29538       -0.59693        0.28166
B          0.31029        1.81182       -0.91738
B          1.55136        2.64792       -0.32040
B          2.92010        1.87201       -0.19131
B          4.28883        1.05632        0.17832
B          4.17901        2.71188        0.68248
B          2.80246        3.48021        0.29829
B          1.41831        4.30617        0.27262
B          0.08024        3.38869       -0.56196
B          0.00367        4.79455        0.22857
B         -2.74630        3.33447       -0.35117
B         -1.33568        4.14307       -0.21047
B         -2.71207        1.66926       -0.79831
B         -4.00911        2.49600       -0.03090
B         -3.91389        0.75728       -0.39089
B         -1.33865        2.44424       -0.72594
B         -1.21756       -2.93693       -1.34739
B          3.03706        0.12165       -0.50912
B         -1.64414        0.53142       -1.09094
B          4.28949       -2.22326        0.79160
B         -4.55668       -1.62690        1.24319
B         -4.69444        0.02579        0.83935
B         -4.96793        1.69099        0.86497
B         -5.77150        0.74099        1.81935
B         -5.57981       -0.73273        1.98978
B          1.48644        0.79375       -0.75396
B         -0.12545        0.30334       -1.06474
B          0.41675       -2.08478       -1.54883
B          5.33487       -1.26275        1.29860
B          5.48401        0.28848        1.25916
B          5.25597        1.81681        1.23033
B         -0.54012       -2.33556        0.16957
