45
isomer_0292.log	Energy: -112480.8255050
B         -2.71148       -1.64433       -0.54157
B         -2.57917       -3.29684       -0.14634
B         -1.13007       -4.13505        0.11093
B          0.33377       -3.35426       -0.39898
B         -1.41850       -0.73279       -0.84665
B          1.81225       -0.84308       -0.86966
B          1.70997       -4.11117        0.32113
B         -4.03247       -0.78056       -0.43944
B          1.76919       -2.47138       -0.28646
B         -4.00528       -2.45013       -0.00618
B          0.27437       -4.70109        0.41566
B          3.14022       -3.27523        0.35094
B          3.19592       -1.66521       -0.22571
B          4.63403       -0.81547        0.26730
B          0.31025        1.80967       -0.92379
B          1.72866        2.46826       -0.30613
B          3.17804        1.65715       -0.25525
B          4.61070        0.82595        0.24547
B          4.47211        2.40762        0.51137
B          3.12368        3.26367        0.29739
B          1.71734        4.12165        0.28834
B          0.32819        3.39160       -0.38375
B          0.31101        4.75019        0.42683
B         -2.51460        3.40815       -0.04236
B         -1.09306        4.21310        0.17924
B         -2.55248        1.78693       -0.44979
B         -3.91213        2.55453        0.09157
B         -4.00161        0.93259       -0.39801
B         -1.14134        2.62239       -0.61056
B         -1.19866       -2.52957       -0.65977
B          3.27925       -0.08461       -0.63860
B         -1.14206        0.97851       -0.76777
B          4.51840       -2.40666        0.56203
B         -5.27128       -1.65581        0.51023
B         -5.23074       -0.00217        0.30056
B         -5.19204        1.75437        0.56210
B         -6.31302        0.82049        1.12278
B         -6.38093       -0.68058        1.11763
B          1.79712        0.84336       -0.87227
B         -2.17568       -0.77632        1.61527
B          0.41952       -1.79137       -0.94343
B          5.88328       -1.56969        0.74797
B          6.03473        0.05810        0.77288
B          5.85015        1.64939        0.76161
B         -0.43554       -0.54429       -0.56676
