45
isomer_2920.log	Energy: -113353.2128748
B         -2.69581        1.61472        0.60129
B         -2.67306        3.31387       -0.13302
B         -1.31413        4.07925       -0.28187
B          0.11509        3.29087        0.27997
B         -1.32655        0.81887        0.95614
B          1.64458        0.82298        0.80958
B          1.53678        4.15504       -0.24039
B         -4.07149        0.87532        0.25315
B          1.58334        2.50336        0.41834
B         -3.94002        2.45990       -0.23529
B          0.11237        4.70010       -0.45071
B          2.91668        3.36608       -0.11764
B          3.08631        1.77054        0.41676
B          4.55633        0.94977        0.12257
B          0.08148       -1.76129        1.33292
B          2.00100       -2.72703        0.45397
B          3.17156       -1.67266        0.00727
B          4.37137       -0.59263       -0.45755
B          4.34453       -2.18921       -1.14581
B          3.04028       -3.10122       -0.79089
B          1.65348       -3.91608       -0.72973
B          0.38256       -3.32188        0.54747
B          0.25813       -4.42903       -0.66243
B         -2.51081       -3.17035       -0.17601
B         -1.11010       -3.93174       -0.28598
B         -2.65149       -1.58545        0.63270
B         -3.85229       -2.35146       -0.30398
B         -4.05592       -0.85944        0.28710
B         -1.22170       -2.43708        0.44880
B         -1.31964        2.41148        0.35132
B          3.19638        0.02567        0.59811
B         -1.27589       -0.80945        1.11233
B          4.31337        2.63399       -0.39463
B         -5.25615        1.61677       -0.72334
B         -5.34519        0.00136       -0.28433
B         -5.24677       -1.63638       -0.71665
B         -6.30345       -0.78184       -1.39278
B         -6.28180        0.70677       -1.43253
B          1.78240       -0.93515        1.09256
B          0.23242       -0.03219        1.23982
B          0.18303        1.68780        0.78138
B          5.43680        1.78657       -0.94405
B          5.64403        0.29450       -1.19789
B          5.44838       -1.21045       -1.47299
B          1.35953       -2.43357        1.82692
