45
isomer_2924.log	Energy: -112729.2918043
B         -2.58157       -1.64231       -0.47397
B         -2.59080       -3.28106       -0.09712
B         -1.19329       -4.12546        0.14939
B          0.27373       -3.30654       -0.39360
B         -1.11226       -0.76427       -0.77241
B          1.76233       -0.82204       -0.84692
B          1.65355       -4.10706        0.29892
B         -4.03179       -0.75398       -0.40419
B          1.66514       -2.42659       -0.28981
B         -3.99065       -2.44736        0.04944
B          0.22169       -4.75682        0.43162
B          3.09368       -3.27430        0.32045
B          3.13834       -1.65209       -0.24266
B          4.60410       -0.85474        0.26119
B          0.35365        1.74837       -0.91375
B          1.74061        2.42854       -0.28092
B          3.18902        1.60846       -0.23669
B          4.62926        0.76410        0.26416
B          4.48497        2.32373        0.51159
B          3.19477        3.22919        0.33237
B          1.78122        4.10639        0.31397
B          0.37722        3.35168       -0.38141
B          0.37025        4.79985        0.44912
B         -2.48672        3.41417       -0.08485
B         -1.06366        4.21381        0.16467
B         -2.52842        1.77731       -0.46770
B         -3.91182        2.62385        0.05873
B         -4.00555        0.93423       -0.40109
B         -1.08503        2.57954       -0.62336
B         -1.16381       -2.48845       -0.63264
B          3.24698       -0.12240       -0.63617
B         -1.08709        0.85512       -0.76944
B          4.41138       -2.41003        0.50292
B         -5.30419       -1.62302        0.54988
B         -5.27506        0.00832        0.31895
B         -5.25037        1.83890        0.55622
B         -6.43271        0.90126        1.15221
B         -6.45685       -0.65127        1.14936
B          1.78791        0.82379       -0.84391
B         -2.64880       -0.98631        0.74437
B          0.30003       -1.70133       -0.92006
B          5.93001       -1.72291        0.72419
B          6.15142       -0.01303        0.79308
B          5.98054        1.71980        0.80108
B         -0.14134       -0.11703       -0.18523
