45
isomer_2927.log	Energy: -113315.1710665
B          2.64557       -1.50821        0.47482
B          2.67366       -3.17240        0.14551
B          1.29473       -4.06443        0.53490
B         -0.34995       -3.51068        0.74030
B          1.31112       -0.70541        1.07141
B         -1.64124       -0.86653        0.86855
B         -1.31187       -4.06284       -0.54783
B          3.91924       -0.60069        0.02896
B         -1.53477       -2.43942        0.23037
B          3.82849       -2.28747       -0.34516
B          0.07597       -4.64995       -0.32197
B         -2.66668       -3.20828       -0.72618
B         -2.94343       -1.72224       -0.04872
B         -4.27858       -0.83105       -0.56743
B         -0.32660        1.77001        1.19490
B         -1.77528        2.49087        0.70231
B         -3.12687        1.64801        0.26115
B         -4.52722        0.77475       -0.19593
B         -4.33961        2.47011       -0.65535
B         -3.06879        3.27389       -0.06770
B         -1.74364        4.16742        0.04325
B         -0.34835        3.37635        0.74794
B         -0.36425        4.81505        0.02350
B          2.41957        3.40922        0.19087
B          1.03573        4.23440        0.19190
B          2.55327        1.76404        0.63101
B          3.71702        2.63094       -0.28417
B          3.99193        1.03590        0.18155
B          1.16159        2.57421        0.86787
B          1.48299       -2.44245        1.16472
B         -3.22906       -0.05685        0.50404
B          1.20978        0.86410        1.18829
B         -4.01680       -2.37038       -1.25910
B          4.83211       -1.35963       -1.29035
B          4.58901        0.28398       -1.16306
B          4.91660        1.94357       -1.04437
B          5.79230        1.06758       -1.95436
B          5.65557       -0.44678       -2.15633
B         -1.71647        0.77326        0.85840
B         -0.20506       -0.06436        1.02332
B         -0.23865       -1.84717        1.41238
B         -5.12916       -1.48851       -1.76247
B         -5.43080        0.02361       -1.56854
B         -5.31152        1.54966       -1.36394
B          0.51840       -3.23519        2.04077
