45
isomer_2928.log	Energy: -113458.2559940
B         -2.64406       -1.53800       -0.56751
B         -2.62339       -3.24307        0.00875
B         -1.32156       -4.06007       -0.05410
B          0.19722       -3.32312       -0.77991
B         -1.22182       -0.75422       -0.92277
B          1.67706       -0.91992       -0.97217
B          1.46738       -4.09823        0.23440
B         -3.98448       -0.77968       -0.27896
B          1.34442       -2.35004        0.15317
B         -3.90287       -2.35372        0.18763
B          0.07745       -4.64400        0.18166
B          2.80261       -3.27344        0.45538
B          2.97230       -1.80216       -0.18581
B          4.32348       -0.87326        0.36163
B          0.32508        1.78422       -0.96879
B          1.80274        2.54540       -0.60284
B          3.15293        1.67665       -0.28996
B          4.54945        0.73640       -0.00445
B          4.45165        2.41787        0.53498
B          3.11879        3.28277        0.15996
B          1.76624        4.13449        0.21241
B          0.33266        3.36775       -0.39691
B          0.35459        4.72100        0.42071
B         -2.46891        3.41464        0.09223
B         -1.09000        4.15964        0.19815
B         -2.55528        1.73172       -0.65920
B         -3.74083        2.56373        0.27080
B         -3.93518        0.98873       -0.21569
B         -1.14632        2.50998       -0.41886
B         -1.19228       -2.38427       -0.38380
B          3.18294       -0.08190       -0.59067
B         -1.22451        0.93900       -1.04530
B          4.16586       -2.51405        0.85705
B         -5.22878       -1.53270        0.69660
B         -5.21970        0.13037        0.32830
B         -5.06020        1.74086        0.78760
B         -6.11998        0.83883        1.49562
B         -6.22541       -0.64495        1.40844
B          1.74159        0.85446       -0.85929
B          0.11050       -1.26091        0.17817
B          0.29120       -1.81335       -1.48226
B          5.36087       -1.64006        1.27497
B          5.61064       -0.10904        1.18382
B          5.47527        1.45085        1.08161
B          0.25067        0.00479       -1.08473
