45
isomer_2929.log	Energy: -113376.7784545
B          2.60399       -1.65060        0.49785
B          2.82993       -3.33574       -0.25574
B          1.30600       -4.05813       -0.11805
B         -0.20101       -3.31676        0.39449
B          1.09593       -0.72084        0.72213
B         -1.72572       -0.81817        0.79997
B         -1.54742       -4.07863       -0.37370
B          3.96732       -0.62777        0.23105
B         -1.67900       -2.47258        0.30518
B          3.98043       -2.27015       -0.36830
B         -0.09562       -4.61911       -0.50799
B         -2.97080       -3.31360       -0.36029
B         -3.13257       -1.75653        0.17816
B         -4.56468       -0.94320       -0.22364
B         -0.50448        1.73139        0.94701
B         -1.92713        2.47242        0.40993
B         -3.31640        1.62481        0.26855
B         -4.65975        0.70215       -0.16012
B         -4.68068        2.35853       -0.51458
B         -3.31708        3.20353       -0.22151
B         -1.98042        4.11833       -0.23022
B         -0.56454        3.43381        0.48898
B         -0.58818        4.77985       -0.35566
B          2.31768        3.54049        0.06909
B          0.83978        4.26104       -0.06523
B          2.40667        1.90479        0.47776
B          3.73412        2.79214       -0.19443
B          3.88188        1.10619        0.24008
B          0.97324        2.69191        0.60986
B          1.16301       -2.43829        0.72176
B         -3.28032       -0.08003        0.52727
B          0.95155        0.94723        0.82274
B         -4.42455       -2.57325       -0.64909
B          5.24423       -1.33692       -0.77622
B          5.18869        0.31747       -0.43489
B          5.03762        2.06486       -0.73406
B          6.13863        1.19759       -1.40533
B          6.25672       -0.31628       -1.43325
B         -1.81341        0.81007        0.85069
B          2.41534       -3.40541        1.18757
B         -0.34120       -1.59759        0.88015
B         -5.66629       -1.72445       -1.02752
B         -5.94326       -0.16069       -0.97197
B         -5.83530        1.40356       -0.94529
B          2.42705        0.15257        0.69681
