45
isomer_0293.log	Energy: -110017.9126300
B         -2.57120       -1.69168       -0.49521
B         -2.56538       -3.32792       -0.10754
B         -1.16022       -4.15754        0.14558
B          0.29950       -3.32851       -0.40175
B         -1.10994       -0.80190       -0.79838
B          1.76513       -0.83322       -0.87040
B          1.68620       -4.11148        0.29707
B         -4.02973       -0.81653       -0.43238
B          1.68252       -2.43490       -0.30276
B         -3.97309       -2.50642        0.03247
B          0.26039       -4.77374        0.43301
B          3.11845       -3.26513        0.31415
B          3.14837       -1.64634       -0.25965
B          4.60619       -0.83198        0.24000
B          0.33249        1.72338       -0.95526
B          1.71252        2.42068       -0.32592
B          3.16851        1.61451       -0.27520
B          4.61620        0.78701        0.23227
B          4.45710        2.34682        0.46928
B          3.15863        3.23895        0.28312
B          1.73694        4.10273        0.25788
B          0.34063        3.33032       -0.43352
B          0.31942        4.78382        0.38741
B         -2.52402        3.36792       -0.13949
B         -1.10871        4.18250        0.10578
B         -2.55007        1.72826       -0.51153
B         -3.94177        2.56525        0.00827
B         -4.01930        0.87183       -0.44043
B         -1.11414        2.54293       -0.67143
B         -1.14545       -2.52552       -0.64725
B          3.24299       -0.11833       -0.66318
B         -1.09994        0.81764       -0.80611
B          4.42786       -2.38737        0.49187
B         -5.29469       -1.69113        0.52648
B         -5.28065       -0.06115        0.28479
B         -5.27330        1.77110        0.50996
B         -6.44728        0.82638        1.11127
B         -6.45687       -0.72629        1.11868
B          1.77529        0.81276       -0.87825
B         -1.23537        0.31470        2.27909
B          0.31118       -1.72664       -0.93880
B          5.93981       -1.68461        0.70970
B          6.14514        0.02770        0.76744
B          5.95803        1.75886        0.76386
B         -1.30836       -0.48772       -0.41498
