45
isomer_2932.log	Energy: -112938.7569393
B          2.52667        1.92787       -0.36875
B          2.47882        3.50315       -0.02613
B          1.04987        4.20596        0.18488
B         -0.39869        3.38027       -0.33946
B          0.92844        0.70183       -0.77379
B         -1.85593        0.82550       -0.83291
B         -1.75725        4.11703        0.34836
B          4.08587        0.82870       -0.38508
B         -1.78510        2.47490       -0.24506
B          3.99074        2.66096        0.12150
B         -0.37258        4.72719        0.45805
B         -3.16824        3.28224        0.37438
B         -3.22508        1.67738       -0.19955
B         -4.67788        0.82902        0.28512
B         -0.44282       -1.71617       -0.93210
B         -1.83490       -2.43745       -0.29673
B         -3.25055       -1.63127       -0.24054
B         -4.65758       -0.80760        0.25522
B         -4.55535       -2.39164        0.52702
B         -3.20453       -3.26848        0.30883
B         -1.82550       -4.09603        0.28055
B         -0.44465       -3.33599       -0.40270
B         -0.42389       -4.69798        0.38947
B          2.45414       -3.39017       -0.02923
B          0.97164       -4.15087        0.13434
B          2.30647       -1.73575       -0.50361
B          4.03737       -2.70444        0.14050
B          4.09541       -0.77464       -0.34646
B          0.96384       -2.55926       -0.63782
B          1.02016        2.62641       -0.57944
B         -3.32520        0.08472       -0.61216
B          0.93328       -0.84798       -0.79527
B         -4.55674        2.44104        0.57871
B          5.28231        1.76791        0.56996
B          5.28133        0.06904        0.35611
B          5.28113       -1.72321        0.59132
B          6.36280       -0.74286        1.14325
B          6.40294        0.75582        1.16440
B         -1.87353       -0.83412       -0.84454
B          2.98934       -1.52262        0.76106
B         -0.44462        1.69739       -0.90151
B         -5.91275        1.57422        0.74441
B         -6.06552        0.00496        0.77199
B         -5.89661       -1.60902        0.76489
B          2.51293        0.81405       -0.96145
