45
isomer_2936.log	Energy: -111658.7320966
B         -2.59797       -1.68108       -0.45113
B         -2.58830       -3.31721       -0.06308
B         -1.18114       -4.14387        0.18854
B          0.27621       -3.31196       -0.36073
B         -1.13891       -0.78836       -0.75627
B          1.73612       -0.81376       -0.83174
B          1.66536       -4.09190        0.33660
B         -4.05823       -0.80892       -0.38675
B          1.65751       -2.41548       -0.26361
B         -3.99755       -2.49858        0.07844
B          0.24109       -4.75706        0.47442
B          3.09589       -3.24259        0.35176
B          3.12177       -1.62388       -0.22246
B          4.57852       -0.80639        0.27524
B          0.29812        1.73985       -0.91548
B          1.67745        2.44015       -0.28797
B          3.13517        1.63700       -0.23881
B          4.58517        0.81261        0.26712
B          4.42314        2.37215        0.50394
B          3.12261        3.26155        0.31914
B          1.69911        4.12239        0.29540
B          0.30356        3.34693       -0.39413
B          0.28035        4.80058        0.42648
B         -2.56080        3.37870       -0.09666
B         -1.14687        4.19625        0.14671
B         -2.58392        1.73889       -0.46828
B         -3.97671        2.57314        0.05300
B         -4.05129        0.87946       -0.39521
B         -1.14986        2.55649       -0.63010
B         -1.17069       -2.51201       -0.60468
B          3.21276       -0.09577       -0.62647
B         -1.13226        0.83120       -0.76439
B          4.40369       -2.36209        0.52769
B         -5.32022       -1.68590        0.57384
B         -5.30984       -0.05595        0.33175
B         -5.30600        1.77636        0.55647
B         -6.47730        0.82937        1.15942
B         -6.48368       -0.72332        1.16721
B          1.74288        0.83223       -0.83999
B         -1.46974        0.07313        1.07068
B          0.28395       -1.71020       -0.89817
B          5.91445       -1.65616        0.74354
B          6.11632        0.05658        0.80063
B          5.92563        1.78735        0.79686
B          0.20446       -0.93993       -0.94873
