45
isomer_0294.log	Energy: -113670.0688929
B         -2.46618        1.78653        0.44981
B         -2.35968        3.36737       -0.06809
B         -0.96451        4.16275       -0.14798
B          0.42277        3.36652        0.48316
B         -1.09438        0.85040        0.97106
B          1.84258        0.81436        0.96950
B          1.83663        4.12136       -0.23362
B         -3.93405        0.97145        0.20585
B          1.86310        2.50637        0.51549
B         -3.75534        2.58268       -0.32205
B          0.44076        4.73880       -0.35631
B          3.17315        3.23584       -0.23958
B          3.22124        1.63762        0.29546
B          4.55840        0.72411       -0.23285
B          0.27895       -1.81002        1.03382
B          1.65998       -2.56433        0.34565
B          3.10487       -1.78254        0.20715
B          4.54901       -0.96785       -0.10016
B          4.27761       -2.54820       -0.78493
B          2.94463       -3.38424       -0.31336
B          1.54879       -4.17689       -0.28947
B          0.20871       -3.41376        0.56743
B          0.10609       -4.71713       -0.37828
B         -2.61542       -3.28863       -0.00160
B         -1.26906       -4.13199       -0.09752
B         -2.63490       -1.70639        0.60348
B         -3.95607       -2.43391       -0.21344
B         -4.02419       -0.78971        0.27157
B         -1.24240       -2.56643        0.72944
B         -1.05988        2.59293        0.70380
B          3.30300       -0.06163        0.63390
B         -1.17566       -0.85933        0.88353
B          4.48166        2.39153       -0.69601
B         -5.02619        1.80234       -0.87683
B         -5.21967        0.12464       -0.47783
B         -5.18545       -1.58197       -0.75595
B         -6.16596       -0.62133       -1.53448
B         -6.09209        0.88927       -1.58528
B          1.71175       -0.85684        0.74208
B         -2.59523        0.06847        0.73686
B          0.41609        1.80506        1.10573
B          5.54889        1.45331       -1.23787
B          5.64541       -0.10011       -1.26937
B          5.33555       -1.62182       -1.33274
B          0.35669       -0.00864        1.09081
