45
isomer_2941.log	Energy: -112466.1420143
B         -2.54682        1.73588        0.37777
B         -2.51618        3.36440       -0.02394
B         -1.10549        4.19339       -0.25981
B          0.33981        3.36624        0.30171
B         -1.05726        0.84862        0.69028
B          1.78945        0.84038        0.80215
B          1.73338        4.12405       -0.38784
B         -4.02569        0.84913        0.27371
B          1.72864        2.45958        0.22051
B         -3.92546        2.52396       -0.18450
B          0.31404        4.77561       -0.53472
B          3.15182        3.26970       -0.39147
B          3.17573        1.65277        0.18840
B          4.62311        0.81325       -0.29791
B          0.35864       -1.70291        0.89272
B          1.71700       -2.44480        0.25332
B          3.16613       -1.64562        0.21391
B          4.61291       -0.82071       -0.28303
B          4.46064       -2.38960       -0.53496
B          3.13319       -3.26812       -0.35165
B          1.72565       -4.11351       -0.34222
B          0.32803       -3.35746        0.34055
B          0.32195       -4.77044       -0.48456
B         -2.55909       -3.38096       -0.00891
B         -1.11024       -4.19071       -0.21858
B         -2.66212       -1.70382        0.36571
B         -3.99613       -2.53737       -0.18811
B         -4.05141       -0.85469        0.27160
B         -1.10285       -2.59205        0.56139
B         -1.10398        2.58413        0.54189
B          3.25759        0.09891        0.60022
B         -1.04768       -0.69647        0.71978
B          4.48357        2.38525       -0.56872
B         -5.24036        1.72683       -0.70739
B         -5.26082        0.08913       -0.47400
B         -5.28079       -1.71592       -0.70721
B         -6.39828       -0.75694       -1.32051
B         -6.39293        0.77573       -1.32731
B          1.78604       -0.82449        0.81537
B         -1.62246       -1.49492        0.87502
B          0.34944        1.76101        0.85096
B          5.93410        1.62396       -0.76074
B          6.10963       -0.06047       -0.80643
B          5.91485       -1.74432       -0.80368
B         -1.50930        1.20437        1.81122
