45
isomer_2943.log	Energy: -111970.4485724
B         -2.65611        1.76719        0.43974
B         -2.65489        3.41507        0.10494
B         -1.25190        4.25728       -0.11663
B          0.20899        3.41614        0.40862
B         -1.19267        0.87319        0.71901
B          1.68202        0.91217        0.80165
B          1.59514        4.22602       -0.25998
B         -4.11129        0.88945        0.34388
B          1.59553        2.53099        0.28557
B         -4.05920        2.59362       -0.06616
B          0.16742        4.88735       -0.37932
B          3.03047        3.38564       -0.29948
B          3.06432        1.74932        0.22202
B          4.52666        0.95654       -0.29868
B          0.25829       -1.65080        0.79938
B          1.64283       -2.32268        0.15257
B          3.09608       -1.51025        0.13270
B          4.54243       -0.66182       -0.34302
B          4.38969       -2.21373       -0.63063
B          3.09383       -3.11590       -0.47764
B          1.67516       -3.98497       -0.48498
B          0.27386       -3.24008        0.22623
B          0.26053       -4.66646       -0.64111
B         -2.58966       -3.27815       -0.07846
B         -1.17065       -4.07949       -0.34507
B         -2.62279       -1.65141        0.34606
B         -4.00979       -2.47607       -0.20508
B         -4.09484       -0.79825        0.29763
B         -1.18448       -2.46582        0.48447
B         -1.23385        2.60065        0.62331
B          3.16310        0.20945        0.57649
B         -1.17689       -0.74572        0.67465
B          4.34358        2.51861       -0.50096
B         -5.37625        1.79007       -0.59057
B         -5.35717        0.15321       -0.40142
B         -5.34253       -1.67081       -0.68541
B         -6.51793       -0.71131       -1.25994
B         -6.53305        0.84076       -1.21741
B          1.69806       -0.73316        0.75656
B          0.18205       -3.21377        2.02236
B          0.22468        1.79787        0.89388
B          5.85873        1.82847       -0.73622
B          6.07038        0.11964       -0.84835
B          5.88946       -1.61138       -0.90110
B          0.60268       -0.91668        0.45590
