45
isomer_2945.log	Energy: -113297.9415685
B          2.77150       -1.58229        0.36627
B          2.67981       -3.24127       -0.01442
B          1.32867       -4.07053       -0.21282
B         -0.15349       -3.33227        0.33873
B          1.19792       -0.63615        0.68810
B         -1.73696       -0.77716        0.79956
B         -1.51125       -4.12167       -0.35561
B          4.01333       -0.72499        0.31855
B         -1.61785       -2.49627        0.22389
B          4.04904       -2.39545       -0.16209
B         -0.06511       -4.66588       -0.46923
B         -2.96880       -3.33251       -0.36366
B         -3.09978       -1.70750        0.20116
B         -4.57781       -0.88942       -0.23584
B         -0.37672        1.71881        0.87102
B         -1.79159        2.41957        0.26380
B         -3.21265        1.58807        0.23755
B         -4.62573        0.73921       -0.22779
B         -4.55838        2.33115       -0.50440
B         -3.20731        3.20841       -0.32155
B         -1.81837        4.06547       -0.31835
B         -0.41619        3.32569        0.34034
B         -0.42810        4.68009       -0.45338
B          2.40410        3.36830       -0.01287
B          0.97568        4.14340       -0.21733
B          2.48433        1.72535        0.37655
B          3.79382        2.55545       -0.15771
B          3.92636        0.96311        0.30725
B          1.07067        2.54328        0.54931
B          1.29732       -2.48483        0.55930
B         -3.23791       -0.11171        0.61955
B          1.10166        0.83840        0.69314
B         -4.40114       -2.50445       -0.54449
B          5.26535       -1.56219       -0.65100
B          5.17758        0.08971       -0.40199
B          5.09226        1.82215       -0.64487
B          6.21192        0.95139       -1.21364
B          6.33739       -0.53126       -1.23942
B         -1.79065        0.83578        0.81858
B          2.65323       -0.29497        1.44303
B         -0.24666       -1.73196        0.89995
B         -5.79824       -1.67126       -0.68270
B         -6.00180       -0.06728       -0.70579
B         -5.88770        1.49393       -0.70674
B         -0.30175       -0.47349       -0.09789
