45
isomer_2946.log	Energy: -113473.5835503
B         -2.63608       -1.41100       -0.53876
B         -2.82174       -3.09017       -0.40491
B         -1.65962       -3.94146        0.16388
B         -0.05944       -3.15267       -0.34221
B         -1.07091       -0.85635       -0.29149
B          1.75432       -0.93586       -1.07844
B          1.16785       -3.71796        0.79680
B         -4.02917       -0.51078       -0.47843
B          1.53374       -2.48247       -0.32094
B         -4.14509       -2.11763       -0.16775
B         -0.38138       -3.98139        1.00532
B          2.66207       -3.24441        0.61147
B          3.00387       -1.80121       -0.20406
B          4.40375       -0.99844        0.24544
B          0.44413        1.66127       -0.77216
B          1.96751        2.39981       -0.55055
B          3.39222        1.55937       -0.50985
B          4.77604        0.54901       -0.31492
B          4.68592        2.24914        0.29944
B          3.39948        3.13845        0.04808
B          2.03110        3.98311        0.22489
B          0.56021        3.30318       -0.34589
B          0.65213        4.57441        0.58820
B         -2.24405        3.39242        0.31260
B         -0.83662        4.09400        0.43225
B         -2.41938        1.74209       -0.30676
B         -3.67865        2.61128        0.43876
B         -3.90277        1.16140       -0.35073
B         -0.96026        2.49424       -0.12056
B         -1.38710       -2.43599       -1.25317
B          3.35080       -0.20230       -0.82771
B         -1.04219        0.80947       -0.48345
B          4.16222       -2.56084        0.87887
B         -5.36627       -1.30366        0.34725
B         -5.30506        0.39651        0.14382
B         -5.11438        2.01404        0.66092
B         -6.37593        1.16360        1.07192
B         -6.45876       -0.32128        0.98800
B          1.88712        0.76352       -0.88559
B         -1.38115       -2.30988        0.55520
B          0.18883       -1.74895       -1.24317
B          5.43149       -1.81412        1.16563
B          5.81103       -0.29309        0.93778
B          5.70246        1.21008        0.81903
B          0.30772       -0.03847       -0.94404
