45
isomer_2950.log	Energy: -113675.8865752
B          2.50953       -1.75927        0.48857
B          2.42834       -3.33431       -0.03985
B          1.04855       -4.15700       -0.12279
B         -0.35017       -3.38511        0.51518
B          2.60965       -0.01570        0.74610
B         -1.78561       -0.83054        0.91002
B         -1.74689       -4.14440       -0.24646
B          3.95665       -0.90964        0.21629
B         -1.80123       -2.53295        0.48822
B          3.81044       -2.53651       -0.29230
B         -0.34043       -4.74579       -0.35213
B         -3.09082       -3.28096       -0.26650
B         -3.17273       -1.68091        0.25966
B         -4.53225       -0.79897       -0.23678
B         -0.31327        1.83090        1.08822
B         -1.72520        2.55096        0.43143
B         -3.12957        1.73289        0.22183
B         -4.54653        0.89294       -0.14624
B         -4.32734        2.49892       -0.77010
B         -3.00932        3.33969       -0.27822
B         -1.64294        4.16930       -0.25838
B         -0.26988        3.40301        0.53915
B         -0.22114        4.74786       -0.35341
B          2.51254        3.30397       -0.03764
B          1.15534        4.14912       -0.10957
B          2.56254        1.73096        0.52969
B          3.86890        2.48554       -0.27659
B          3.98369        0.84615        0.22412
B          1.18515        2.57790        0.78856
B          1.11994       -2.58977        0.76521
B         -3.29351        0.01567        0.60900
B          1.16973        0.85089        1.06811
B         -4.40588       -2.44502       -0.74995
B          5.06137       -1.73789       -0.86385
B          5.19555       -0.04358       -0.52269
B          5.10386        1.65254       -0.84592
B          6.10413        0.70755       -1.60613
B          6.08469       -0.81314       -1.61251
B         -1.71826        0.84334        0.78987
B          1.13002       -0.84851        1.04209
B         -0.36856       -1.82532        1.11687
B         -5.47224       -1.51928       -1.30219
B         -5.61981        0.03263       -1.30476
B         -5.37416        1.56898       -1.33794
B         -0.34286        0.00287        1.09469
