45
isomer_2955.log	Energy: -113730.2850705
B          2.36127        2.00841       -0.34044
B          1.94403        3.50377        0.43953
B          0.50381        4.16271        0.35103
B         -0.77463        3.30355       -0.41905
B          1.03411        1.01854       -0.99122
B         -1.74555        0.59603       -0.89621
B         -2.28830        3.86997        0.12610
B          3.96467        1.43482       -0.25389
B         -2.05145        2.23955       -0.58876
B          3.37241        2.84891        0.86558
B         -1.01141        4.60705        0.45877
B         -3.54774        2.84181       -0.05903
B         -3.39142        1.27773       -0.50170
B         -4.67784        0.17463       -0.28502
B         -0.01935       -1.65967       -1.20834
B         -1.16353       -2.49504       -0.22554
B         -2.69434       -1.97859       -0.08171
B         -4.28942       -1.40258        0.05106
B         -3.80454       -2.84557        0.89965
B         -2.26288       -3.36725        0.67457
B         -0.70390       -3.84211        0.77318
B          0.39022       -3.09247       -0.33845
B          0.79829       -4.01585        0.90197
B          3.20366       -2.90353       -0.82334
B          2.06093       -3.33692        0.25953
B          2.91309       -1.16859       -1.21377
B          4.45634       -1.96561       -0.53651
B          4.14847       -0.20708       -0.54691
B          1.60902       -2.21570       -1.09824
B          0.82629        2.69594       -0.46404
B         -3.15861       -0.43780       -0.77774
B          1.25845       -0.53078       -1.28725
B         -4.79413        1.85832        0.24133
B          4.60711        2.02232        1.27615
B          4.84279        0.48164        1.09933
B          4.87264       -1.14608        0.74458
B          3.30858       -0.42456        1.21667
B          3.05668        1.16413        1.28810
B         -1.49654       -0.98837       -0.98400
B          3.03391       -1.85357        0.55234
B         -0.51546        1.65133       -0.91486
B         -5.75414        0.78695        0.74271
B         -5.66339       -0.73270        0.90005
B         -5.13888       -2.18398        1.15388
B          2.38067        0.24628       -0.18010
