45
isomer_2956.log	Energy: -112048.8680354
B         -2.61986        1.76509        0.39411
B         -2.60686        3.40808        0.03634
B         -1.19777        4.23779       -0.19353
B          0.25624        3.39439        0.34700
B         -1.16308        0.86539        0.68942
B          1.71160        0.88643        0.77855
B          1.64934        4.18562       -0.32945
B         -4.08064        0.89577        0.30694
B          1.63712        2.49843        0.23971
B         -4.01621        2.59366       -0.12671
B          0.22634        4.85468       -0.46151
B          3.07911        3.33526       -0.35369
B          3.10081        1.70621        0.19069
B          4.55906        0.89654       -0.31530
B          0.27081       -1.66681        0.80858
B          1.65236       -2.35684        0.17461
B          3.11104       -1.55443        0.14696
B          4.56414       -0.72235       -0.33701
B          4.40173       -2.27708       -0.60330
B          3.09952       -3.16840       -0.44090
B          1.67511       -4.02806       -0.43959
B          0.27714       -3.26401        0.25772
B          0.25633       -4.70226       -0.58966
B         -2.58585       -3.28733       -0.05344
B         -1.17160       -4.10172       -0.30535
B         -2.60913       -1.65463        0.34825
B         -4.00030       -2.47769       -0.19472
B         -4.07534       -0.79248        0.28430
B         -1.17661       -2.47655        0.50155
B         -1.19252        2.59158        0.56951
B          3.18849        0.17082        0.56686
B         -1.15800       -0.75405        0.66771
B          4.38688        2.45681       -0.53982
B         -5.33736        1.79162       -0.64309
B         -5.32964        0.15747       -0.43105
B         -5.32649       -1.67039       -0.68951
B         -6.49411       -0.71124       -1.28027
B         -6.49898        0.84134       -1.25945
B          1.71677       -0.75944        0.75648
B         -0.17517       -0.18110        2.06974
B          0.25998        1.78299        0.85484
B          5.89795        1.75341       -0.76171
B          6.09846        0.04181       -0.84945
B          5.90611       -1.68854       -0.87848
B         -0.16695       -2.81581        1.08712
