45
isomer_2957.log	Energy: -113082.4866943
B          2.59971        1.61042       -0.85479
B          2.46737        3.23811       -0.08741
B          1.12146        4.05279        0.18086
B         -0.39247        3.41606       -0.38082
B          1.02233        1.03508       -1.29652
B         -1.73968        0.88367       -0.72474
B         -1.70523        4.12101        0.47983
B          3.99866        0.84129       -0.33387
B         -1.79287        2.54883       -0.33120
B          3.80799        2.42137        0.11489
B         -0.28238        4.65129        0.59613
B         -3.12218        3.29093        0.38918
B         -3.22695        1.75279       -0.18723
B         -4.65413        0.84928        0.08284
B          0.27468       -1.76318       -1.59881
B         -1.80007       -2.48066       -0.15033
B         -3.20579       -1.69996       -0.23093
B         -4.61091       -0.83051        0.15735
B         -4.54443       -2.50155        0.57432
B         -3.10330       -3.26114        0.35217
B         -1.63407       -4.08873        0.36333
B         -0.24589       -3.21019       -0.38717
B         -0.22469       -4.64051        0.38559
B          2.55033       -3.26476        0.21269
B          1.20735       -4.06271        0.21999
B          2.82920       -1.74502       -0.53220
B          3.96485       -2.38811        0.44342
B          4.10499       -0.82489       -0.16866
B          1.36836       -2.56645       -0.68923
B          1.10672        2.57858       -0.59398
B         -3.27642        0.02347       -0.51784
B          1.59661       -0.90217       -1.32513
B         -4.50262        2.46959        0.64866
B          5.05616        1.76287        0.78389
B          5.22340        0.08141        0.62976
B          5.17048       -1.56914        1.05407
B          6.14635       -0.54836        1.77380
B          6.10428        0.93497        1.64447
B         -1.76095       -0.72623       -0.71210
B          2.20473        0.34379       -1.84846
B         -0.43034        1.78740       -0.95946
B         -5.63449        1.51225        1.10815
B         -5.85998       -0.03093        1.02104
B         -5.69456       -1.60749        1.00188
B         -0.48158       -1.49455       -0.30742
