45
isomer_2958.log	Energy: -113434.6988561
B         -2.66802        1.58132        0.36021
B         -2.59305        3.26208       -0.08534
B         -1.21359        4.10150       -0.18157
B          0.24297        3.26691        0.20927
B         -1.21008        0.69550        0.59884
B          1.69353        0.75575        1.08497
B          1.62519        4.18558       -0.11775
B         -4.10068        0.87543        0.40863
B          1.68697        2.49225        0.51998
B         -3.99260        2.41741       -0.25905
B          0.21024        4.77044       -0.27074
B          3.01036        3.29815       -0.11660
B          3.12165        1.75357        0.40398
B          4.40481        0.83191       -0.26150
B          0.35395       -1.73390        0.93707
B          1.69900       -2.50527        0.27352
B          3.07036       -1.69291       -0.06213
B          4.53957       -0.82642       -0.01506
B          4.42123       -2.47041       -0.71183
B          3.04858       -3.30242       -0.37477
B          1.63861       -4.14527       -0.34816
B          0.30774       -3.37683        0.49222
B          0.22522       -4.72058       -0.36694
B         -2.51982       -3.23826        0.05988
B         -1.16742       -4.11665       -0.04463
B         -2.60362       -1.63176        0.67807
B         -3.87868       -2.36274       -0.14611
B         -4.01968       -0.79931        0.41879
B         -1.21224       -2.55712        0.68138
B         -1.27393        2.45456        0.33260
B          3.13188       -0.00916        0.47159
B         -1.13052       -0.83880        1.03766
B          4.42629        2.52949       -0.45863
B         -5.28736        1.67210       -0.69440
B         -5.31228       -0.00453       -0.33840
B         -5.15196       -1.65627       -0.67906
B         -6.30295       -0.76766       -1.33331
B         -6.39183        0.71926       -1.29728
B          1.56540       -0.74795        0.09605
B          0.17801        0.04513       -0.15336
B          0.25518        1.64057        0.63507
B          5.58987        1.64220       -0.90631
B          5.74353        0.07447       -0.98196
B          5.51331       -1.48423       -1.07719
B          0.32687       -0.07712        1.58231
