45
isomer_0296.log	Energy: -111653.4596071
B         -2.63042        1.71444        0.35902
B         -2.61485        3.35015       -0.03061
B         -1.20467        4.17167       -0.28225
B          0.24946        3.33523        0.26865
B         -1.17465        0.81695        0.66585
B          1.70041        0.83242        0.74291
B          1.64171        4.10965       -0.42866
B         -4.09367        0.84732        0.29467
B          1.62769        2.43385        0.17318
B         -4.02685        2.53630       -0.17212
B          0.21984        4.77963       -0.56792
B          3.06928        3.25536       -0.44219
B          3.08921        1.63712        0.13362
B          4.54338        0.81409       -0.36247
B          0.25348       -1.71609        0.82832
B          1.63072       -2.42179        0.20227
B          3.09125       -1.62377        0.15315
B          4.54439       -0.80492       -0.35277
B          4.37707       -2.36411       -0.58817
B          3.07335       -3.24881       -0.40323
B          1.64685       -4.10466       -0.37946
B          0.25362       -3.32368        0.30854
B          0.22581       -4.77804       -0.51067
B         -2.61066       -3.34577        0.00949
B         -1.19946       -4.16848       -0.23229
B         -2.62828       -1.70554        0.37951
B         -4.02368       -2.53544       -0.14174
B         -4.09262       -0.84107        0.30478
B         -1.19717       -2.52796        0.54293
B         -1.20034        2.54056        0.51257
B          3.17465        0.10910        0.53917
B         -1.17364       -0.80261        0.67555
B          4.37411        2.37014       -0.61653
B         -5.35207        1.72774       -0.66748
B         -5.34750        0.09801       -0.42379
B         -5.34991       -1.73453       -0.64674
B         -6.51757       -0.78406       -1.25126
B         -6.51854        0.76864       -1.26056
B          1.70144       -0.81357        0.75277
B         -0.36490       -1.17145        1.16154
B          0.25133        1.73397        0.80766
B          5.88253        1.65874       -0.83084
B          6.07846       -0.05474       -0.88615
B          5.88175       -1.78484       -0.88081
B          0.73964        1.01488        2.54258
