45
isomer_2960.log	Energy: -113211.9611209
B         -2.73460       -1.60855       -0.62934
B         -2.92419       -3.21975       -0.02464
B         -1.19795       -3.95566        0.24683
B          0.19128       -3.31252       -0.49661
B         -1.52728       -0.54963       -0.97808
B          1.64845       -0.83146       -0.88100
B          1.55480       -4.13655        0.24826
B         -4.04515       -0.63637       -0.42372
B          1.69134       -2.59092       -0.39596
B         -4.18794       -2.27827        0.04334
B          0.14876       -4.67602        0.40431
B          3.00636       -3.29696        0.26497
B          3.08831       -1.77079       -0.24040
B          4.47292       -0.87604        0.19991
B          0.49546        1.79159       -0.96737
B          1.84976        2.55637       -0.38000
B          3.22209        1.69210       -0.23553
B          4.52660        0.76925        0.18815
B          4.62328        2.44738        0.59017
B          3.20149        3.23422        0.30909
B          1.85073        4.18674        0.34431
B          0.47074        3.45151       -0.43677
B          0.44941        4.78594        0.43181
B         -2.33763        3.34617       -0.04498
B         -0.95480        4.18682        0.11691
B         -2.42986        1.68310       -0.48650
B         -3.73175        2.55820        0.22561
B         -3.92892        1.01294       -0.37069
B         -1.04855        2.61034       -0.63531
B         -1.22033       -2.23488       -0.62490
B          3.19341       -0.03245       -0.51481
B         -0.86069        0.91379       -0.86747
B          4.46955       -2.57471        0.52902
B         -5.34773       -1.37923        0.60126
B         -5.21899        0.28407        0.38278
B         -5.08750        1.95724        0.68721
B         -6.29479        1.12606        1.25400
B         -6.38931       -0.37972        1.25469
B          1.72083        0.82232       -0.90069
B         -1.89785       -2.64410        0.82735
B          0.33963       -1.76885       -1.12374
B          5.61742       -1.67460        0.94319
B          5.84607       -0.10829        0.94326
B          5.71448        1.45760        0.98996
B         -0.02730       -0.33741       -0.36785
