45
isomer_2961.log	Energy: -113364.8791826
B         -2.52665        1.56297        0.45248
B         -2.48269        3.31765       -0.13257
B         -1.12743        4.19144       -0.21883
B          0.35870        3.46429        0.47393
B         -1.01297        1.05318        0.61353
B          1.70601        0.79861        0.95080
B          1.71475        4.17079       -0.28301
B         -3.98907        0.92336        0.42703
B          1.76607        2.54980        0.49173
B         -3.78078        2.41114       -0.32605
B          0.31568        4.76055       -0.45829
B          3.08565        3.24281       -0.24556
B          3.17252        1.69074        0.30982
B          4.47831        0.71376       -0.26832
B          0.28145       -1.85868        1.12643
B          1.70718       -2.54389        0.54006
B          3.10278       -1.73818        0.31944
B          4.55905       -0.89744        0.08923
B          4.33795       -2.51329       -0.60359
B          3.01528       -3.32086       -0.26237
B          1.60572       -4.04814       -0.49733
B          0.23689       -3.26963        0.11775
B          0.20917       -4.59186       -0.75208
B         -2.64751       -3.28899       -0.03581
B         -1.23110       -4.02992       -0.37485
B         -2.62457       -1.62491        0.83618
B         -3.90730       -2.42299       -0.07299
B         -3.96840       -0.78087        0.41244
B         -1.24340       -2.52682        0.33303
B         -1.14700        2.67416        0.47227
B          3.24048       -0.01678        0.67063
B         -1.70310       -0.25661        0.61999
B          4.41725        2.39648       -0.67132
B         -5.09009        1.71168       -0.80507
B         -5.16578        0.06438       -0.39037
B         -4.98625       -1.57112       -0.76592
B         -6.04553       -0.64972       -1.51898
B         -6.17870        0.81933       -1.43269
B          1.66938       -0.82523        0.80488
B         -1.17030       -1.40432        1.67970
B          0.36909        1.85886        0.97038
B          5.53756        1.49838       -1.17936
B          5.67057       -0.03935       -1.20322
B          5.32620       -1.55051       -1.20056
B          0.14494       -0.10424        0.98740
