45
isomer_2962.log	Energy: -113372.3757075
B          2.46394       -1.58299        0.05909
B          2.38929       -3.27717       -0.50165
B          1.02117       -4.03456       -0.42674
B         -0.34178       -3.28057        0.41988
B          1.19959       -0.85505        0.80014
B         -2.15717       -0.62818        1.40826
B         -1.75479       -3.99967       -0.05995
B          3.90919       -0.93948       -0.10973
B         -1.80623       -2.40581        0.96337
B          3.73209       -2.46855       -0.65857
B         -0.40629       -4.63019       -0.40155
B         -3.03106       -3.08156       -0.04061
B         -3.21209       -1.56054        0.34110
B         -4.33458       -0.61298       -0.56932
B         -0.24868        1.65208        0.97836
B         -1.62445        2.55521        0.48045
B         -3.04136        1.85068        0.06352
B         -4.51066        1.04017       -0.33285
B         -4.10158        2.64012       -0.99888
B         -2.81917        3.41523       -0.41385
B         -1.40652        4.15235       -0.28415
B         -0.11526        3.30224        0.49091
B          0.03456        4.66592       -0.31320
B          2.70728        3.22681        0.24430
B          1.40331        4.03337        0.06529
B          2.67542        1.48619        0.81890
B          3.95071        2.34086        0.01598
B          4.02616        0.74980        0.27009
B          1.31391        2.35161        0.59284
B          1.24276       -2.55261        0.48628
B         -3.34816        0.18825        0.55275
B          1.23176        0.75279        1.14999
B         -4.24656       -2.28697       -0.82918
B          5.10795       -1.65640       -1.08016
B          5.26725       -0.10168       -0.41869
B          5.28495        1.57494       -0.54926
B          6.30809        0.75021       -1.36494
B          6.22121       -0.72068       -1.60294
B         -1.72145        0.90169        0.74601
B         -0.33382       -0.10273        1.37597
B         -0.07312       -1.87719        1.30406
B         -5.23100       -1.40863       -1.59545
B         -5.36159        0.15428       -1.68540
B         -5.07699        1.68141       -1.67477
B         -1.18622       -1.40201        2.28429
