45
isomer_2963.log	Energy: -113401.6183767
B         -2.64413        1.61123        0.60964
B         -2.66608        3.22048        0.01629
B         -1.30650        4.08929       -0.12743
B          0.14536        3.38780        0.47290
B         -1.20405        0.80294        0.99661
B          1.62138        0.85144        0.58636
B          1.48895        4.13287       -0.41189
B         -3.97314        0.73863        0.21206
B          1.59055        2.54958        0.22533
B         -3.97722        2.34962       -0.11957
B          0.04593        4.68963       -0.46785
B          2.88509        3.33863       -0.42927
B          3.04904        1.76148        0.15747
B          4.50223        0.96179       -0.08111
B          0.28245       -1.73071        0.96523
B          1.79181       -2.48156        0.50067
B          3.15911       -1.59863        0.41696
B          4.53826       -0.74206       -0.04357
B          4.47699       -2.40136       -0.52831
B          3.13219       -3.21543       -0.11952
B          1.78370       -4.08258       -0.21862
B          0.33396       -3.34191        0.40400
B          0.39140       -4.70895       -0.43290
B         -2.43496       -3.32687       -0.23187
B         -1.01599       -4.12361       -0.29516
B         -2.51071       -1.70826        0.29594
B         -3.79951       -2.53536       -0.37104
B         -3.91756       -0.95093        0.06389
B         -1.14756       -2.56943        0.53899
B         -1.30591        2.53618        0.69855
B          3.23570        0.07631        0.66038
B         -1.16884       -0.79911        0.71130
B          4.25667        2.51477       -0.82820
B         -5.32162        1.52857       -0.54272
B         -5.30630       -0.13646       -0.18678
B         -5.19860       -1.73592       -0.76223
B         -6.30644       -0.85181       -1.30522
B         -6.36330        0.64334       -1.20673
B          1.65071       -0.76421        0.92985
B          0.23973        0.04110        1.72217
B          0.22846        1.76681        0.99945
B          5.35966        1.59124       -1.28207
B          5.64598        0.06790       -1.13569
B          5.54172       -1.47977       -1.05813
B          0.19137        0.03331        0.00185
