45
isomer_2964.log	Energy: -110453.1093047
B         -2.57300       -1.65496       -0.51092
B         -2.57594       -3.29503       -0.13977
B         -1.17532       -4.13420        0.10695
B          0.28933       -3.30703       -0.42991
B         -1.10686       -0.76951       -0.80303
B          1.76811       -0.81454       -0.87128
B          1.67107       -4.10396        0.26294
B         -4.02722       -0.77317       -0.44133
B          1.67666       -2.42142       -0.31995
B         -3.97973       -2.46793        0.00653
B          0.24176       -4.76039        0.39017
B          3.10751       -3.26503        0.29059
B          3.14637       -1.64070       -0.26681
B          4.60752       -0.83875        0.24309
B          0.34842        1.74995       -0.93237
B          1.73099        2.43393       -0.29408
B          3.18286        1.61999       -0.24943
B          4.62564        0.78016        0.25172
B          4.47401        2.33828        0.50422
B          3.18029        3.23875        0.32524
B          1.76298        4.10987        0.30670
B          0.36383        3.35148       -0.39444
B          0.34870        4.79672        0.44109
B         -2.50101        3.40051       -0.10410
B         -1.08200        4.20545        0.15138
B         -2.53473        1.76482       -0.49270
B         -3.92298        2.60351        0.03355
B         -4.00833        0.91511       -0.43233
B         -1.09451        2.57385       -0.64234
B         -1.15122       -2.49437       -0.66934
B          3.24923       -0.10920       -0.65477
B         -1.08874        0.84996       -0.79440
B          4.42103       -2.39569        0.47900
B         -5.29795       -1.65103        0.50686
B         -5.27540       -0.01879        0.28165
B         -5.25921        1.81104        0.52531
B         -6.43878        0.86621        1.11539
B         -6.45616       -0.68639        1.10712
B          1.78653        0.83136       -0.86251
B         -1.65911       -0.77111        2.17590
B          0.30982       -1.69991       -0.95075
B          5.93616       -1.70276        0.70606
B          6.14998        0.00782        0.78136
B          5.97154        1.73985        0.79498
B         -1.14215       -0.21277       -0.53120
