45
isomer_2966.log	Energy: -111487.8606884
B          2.66547       -1.65496        0.37947
B          2.64916       -3.28972       -0.03387
B          1.24117       -4.11407       -0.29906
B         -0.21185       -3.28688        0.26152
B          1.21676       -0.75250        0.69893
B         -1.66105       -0.80178        0.75849
B         -1.60301       -4.05345       -0.44936
B          4.12395       -0.78802        0.32238
B         -1.59560       -2.38086        0.17627
B          4.05305       -2.46951       -0.16351
B         -0.18003       -4.71687       -0.59447
B         -3.03441       -3.18732       -0.45445
B         -3.05661       -1.57138        0.14014
B         -4.50645       -0.73088       -0.34722
B         -0.21042        1.79555        0.88604
B         -1.58369        2.51619        0.26397
B         -3.04922        1.71558        0.20116
B         -4.50104        0.90171       -0.31830
B         -4.33181        2.46645       -0.53802
B         -3.02194        3.34843       -0.33833
B         -1.59228        4.20113       -0.30122
B         -0.20432        3.40753        0.38085
B         -0.16982        4.86290       -0.42293
B          2.65777        3.41529        0.08347
B          1.25061        4.24661       -0.15009
B          2.67052        1.77078        0.43859
B          4.06227        2.59909       -0.07524
B          4.12714        0.90551        0.35220
B          1.24538        2.60069        0.60900
B          1.24037       -2.48904        0.52135
B         -3.14321       -0.02873        0.56697
B          1.21736        0.87089        0.72520
B         -4.34584       -2.28934       -0.62393
B          5.37534       -1.65368       -0.65059
B          5.37364       -0.02753       -0.38698
B          5.38103        1.80012       -0.58881
B          6.53815        0.85942       -1.20515
B          6.53841       -0.69027       -1.23406
B         -1.65755        0.91444        0.79762
B         -0.46284       -2.80538        1.36655
B         -0.20488       -1.67061        0.83040
B         -5.83927       -1.55763       -0.82790
B         -6.02758        0.15368       -0.86121
B         -5.82842        1.87509       -0.83658
B         -1.60442       -0.21663        0.94069
