45
isomer_2968.log	Energy: -111893.3375156
B         -2.60250       -1.51668       -0.49873
B         -2.64763       -3.15813       -0.13651
B         -1.26899       -4.03491        0.10308
B          0.21585       -3.24331       -0.43193
B         -1.11424       -0.66821       -0.78868
B          1.75846       -0.78787       -0.86242
B          1.57747       -4.07982        0.25404
B         -4.03309       -0.59764       -0.42168
B          1.62602       -2.39483       -0.31968
B         -4.02911       -2.29549        0.01685
B          0.13173       -4.69941        0.38030
B          3.03538       -3.27883        0.28364
B          3.11569       -1.65303       -0.26496
B          4.59814       -0.89230        0.24663
B          0.40610        1.81309       -0.90695
B          1.80713        2.45724       -0.26746
B          3.23732        1.60546       -0.22990
B          4.65852        0.72552        0.26404
B          4.54805        2.28566        0.52531
B          3.27798        3.22056        0.35359
B          1.88386        4.12845        0.34238
B          0.46422        3.41070       -0.36033
B          0.48823        4.85123        0.48308
B         -2.39788        3.53287       -0.06451
B         -0.95791        4.29910        0.19277
B         -2.47494        1.90079       -0.46195
B         -3.83993        2.77252        0.07139
B         -3.97011        1.08950       -0.40353
B         -1.01434        2.67277       -0.60980
B         -1.20339       -2.39202       -0.66431
B          3.25785       -0.12262       -0.64477
B         -1.05383        0.95017       -0.77126
B          4.37146       -2.44511        0.47440
B         -5.32471       -1.44723        0.52402
B         -5.25993        0.18507        0.30767
B         -5.19557        2.01249        0.56125
B         -6.39841        1.09555        1.14833
B         -6.45633       -0.45601        1.13164
B          1.81986        0.85692       -0.84472
B         -2.35637       -3.07959        0.91409
B          0.27742       -1.63444       -0.94405
B          5.90454       -1.79321        0.70246
B          6.16307       -0.08923        0.78670
B          6.02993        1.64677        0.81007
B         -1.05511       -0.75251        0.02040
