45
isomer_2969.log	Energy: -111018.7408343
B          2.59645       -1.69578        0.37788
B          2.58597       -3.33304       -0.00535
B          1.17802       -4.16214       -0.24425
B         -0.27629       -3.33042        0.31329
B          1.13857       -0.80395        0.69112
B         -1.73580       -0.83264        0.78775
B         -1.66955       -4.11407       -0.37158
B          4.05512       -0.82204        0.30027
B         -1.65937       -2.43590        0.22371
B          3.99312       -2.51312       -0.15956
B         -0.24550       -4.77790       -0.51790
B         -3.10120       -3.26655       -0.37871
B         -3.12488       -1.64621        0.19099
B         -4.58624       -0.83195       -0.29837
B         -0.30039        1.72296        0.85354
B         -1.68515        2.41975        0.23414
B         -3.14219        1.61468        0.19800
B         -4.59484        0.78706       -0.29489
B         -4.43648        2.34610       -0.53742
B         -3.13573        3.23762       -0.36473
B         -1.71316        4.10026       -0.35393
B         -0.31164        3.32850        0.32759
B         -0.29625        4.77979       -0.49737
B          2.55042        3.36290        0.00904
B          1.13374        4.17802       -0.22633
B          2.57829        1.72421        0.38523
B          3.96619        2.55863       -0.14866
B          4.04615        0.86635        0.30389
B          1.14445        2.54053        0.55519
B          1.17136       -2.52800        0.54430
B         -3.21479       -0.11705        0.59124
B          1.12997        0.81561        0.69460
B         -4.41134       -2.38816       -0.54759
B          5.31113       -1.70027       -0.66700
B          5.30050       -0.06964       -0.42956
B          5.29274        1.76201       -0.65956
B          6.46077        0.81470       -1.26834
B          6.46901       -0.73800       -1.27167
B         -1.74454        0.81336        0.79128
B          0.78493       -1.42468        1.27265
B         -0.28207       -1.72711        0.84613
B         -5.92452       -1.68470       -0.75440
B         -6.12892        0.02762       -0.81497
B         -5.94036        1.75863       -0.81761
B          0.77427        1.38405        1.13792
