45
isomer_0297.log	Energy: -113441.9681260
B         -2.47423       -1.74124       -0.39389
B         -2.66128       -3.19361        0.79680
B         -1.38451       -4.10433        0.81232
B         -0.07501       -3.24180       -0.39358
B         -1.28472       -0.63260       -1.02355
B          1.68422       -0.78854       -1.00737
B          1.38124       -3.97967        0.24419
B         -3.68422       -0.64505        0.00636
B          1.55358       -2.48782       -0.56652
B         -3.73839       -2.13555        0.65137
B          0.05046       -4.49966        0.66246
B          2.83004       -3.27210        0.16975
B          3.02582       -1.74365       -0.31756
B          4.41188       -0.90664        0.21438
B          0.39903        1.88214       -0.97220
B          1.84738        2.55110       -0.45979
B          3.21472        1.67982       -0.16709
B          4.64476        0.72845       -0.04578
B          4.49806        2.36310        0.68976
B          3.19323        3.24718        0.34929
B          1.83342        4.13177        0.42165
B          0.44047        3.42724       -0.33835
B          0.45422        4.75218        0.56202
B         -2.37447        3.45146        0.11201
B         -0.98015        4.21731        0.27990
B         -2.45145        1.82321       -0.46720
B         -3.79843        2.69105        0.15918
B         -3.73053        1.01812        0.01428
B         -1.08918        2.68665       -0.57202
B         -1.81861       -3.42147       -0.59065
B          3.25611       -0.02759       -0.65452
B         -1.14792        0.95915       -1.03425
B          4.26581       -2.56301        0.59827
B         -5.16439       -1.31654        0.68233
B         -5.17690        0.23715        0.07991
B         -5.12892        1.93515        0.50978
B         -6.24580        1.00889        1.06266
B         -6.37003       -0.47286        1.00033
B          1.77595        0.86172       -0.72691
B         -1.16976       -2.28444       -1.41963
B          0.27771       -1.65381       -1.30377
B          5.44633       -1.75428        1.08609
B          5.69523       -0.21127        1.10747
B          5.51941        1.32951        1.14785
B          0.24981        0.09521       -0.96582
