45
isomer_2970.log	Energy: -111736.7869383
B          2.60882       -1.60512        0.36721
B          2.60712       -3.23874       -0.03140
B          1.20354       -4.07390       -0.27486
B         -0.25434       -3.25611        0.29384
B          1.14642       -0.72495        0.69219
B         -1.72749       -0.77162        0.79516
B         -1.64455       -4.04155       -0.39517
B          4.06210       -0.72204        0.29446
B         -1.64290       -2.36902        0.21587
B          4.00903       -2.40905       -0.18113
B         -0.21695       -4.69550       -0.55102
B         -3.08121       -3.20252       -0.39102
B         -3.11313       -1.58777        0.19397
B         -4.58044       -0.77764       -0.28433
B         -0.30707        1.79173        0.88172
B         -1.69739        2.48608        0.27210
B         -3.14973        1.67275        0.23173
B         -4.59861        0.84119       -0.26559
B         -4.45005        2.40335       -0.49378
B         -3.15420        3.30092       -0.31570
B         -1.73674        4.17185       -0.30005
B         -0.32907        3.40206        0.37094
B         -0.32421        4.86110       -0.44035
B          2.53198        3.45644        0.04614
B          1.10995        4.26531       -0.17828
B          2.57044        1.81448        0.40681
B          3.95211        2.66212       -0.12240
B          4.04315        0.96616        0.31402
B          1.13219        2.62063        0.58776
B          1.18907       -2.44732        0.52906
B         -3.21115       -0.06301        0.60881
B          1.12825        0.89443        0.71095
B         -4.39693       -2.33037       -0.54860
B          5.32100       -1.58365       -0.68392
B          5.30128        0.04458       -0.43111
B          5.28214        1.87823       -0.64383
B          6.45431        0.94364       -1.26419
B          6.47174       -0.60888       -1.28217
B         -1.74596        0.87419        0.81422
B          1.76526       -1.18246        1.77238
B         -0.26836       -1.65795        0.84177
B         -5.91472       -1.63400       -0.74529
B         -6.12939        0.07757       -0.78926
B         -5.95108        1.80962       -0.77603
B         -0.26423       -2.25528        0.14834
