45
isomer_2971.log	Energy: -110137.7804771
B          2.54917        1.81511       -0.45060
B          2.51183        3.45462       -0.07884
B          1.09063        4.26118        0.15875
B         -0.35094        3.40077       -0.38827
B          1.10582        0.89628       -0.75291
B         -1.76891        0.87511       -0.84052
B         -1.75530        4.16530        0.29554
B          4.02282        0.96702       -0.37153
B         -1.71821        2.48339       -0.28799
B          3.93328        2.65999        0.07661
B         -0.34238        4.85441        0.43264
B         -3.17219        3.29349        0.31320
B         -3.16987        1.66899       -0.24504
B         -4.61555        0.83333        0.25471
B         -0.29014       -1.65596       -0.89298
B         -1.66085       -2.37194       -0.26427
B         -3.13135       -1.59169       -0.22911
B         -4.59643       -0.78558        0.26262
B         -4.41065       -2.33992        0.51557
B         -3.09535       -3.21026        0.34497
B         -1.65826       -4.04849        0.33566
B         -0.27227       -3.25771       -0.35575
B         -0.22947       -4.70265        0.47933
B          2.59093       -3.24088       -0.04613
B          1.18915       -4.07843        0.19949
B          2.58957       -1.60466       -0.43390
B          3.99320       -2.41142        0.10139
B          4.04277       -0.72126       -0.36329
B          1.16940       -2.44657       -0.59353
B          1.10953        2.62163       -0.61829
B         -3.23481        0.13572       -0.63425
B          1.12495       -0.72318       -0.74499
B         -4.46657        2.39403        0.49244
B          5.26658        1.87342        0.58552
B          5.28315        0.24121        0.35956
B          5.30748       -1.58863        0.60243
B          6.46098       -0.61720        1.20080
B          6.44263        0.93540        1.19321
B         -1.74946       -0.77079       -0.83248
B          1.31631       -2.96046       -0.55205
B         -0.33090        1.79388       -0.90983
B         -5.96683        1.66626        0.70903
B         -6.14169       -0.04883        0.78226
B         -5.92349       -1.77630        0.79645
B          0.95171       -0.33775        0.39438
