45
isomer_2972.log	Energy: -112890.2550401
B         -2.71689       -1.68712       -0.50196
B         -2.81417       -3.38975        0.10991
B         -1.43578       -4.16540        0.30850
B          0.09669       -3.54241       -0.39945
B         -1.43647       -0.67396       -0.99804
B          1.84690       -1.25038       -0.87380
B          1.52133       -4.18044        0.41306
B         -4.03521       -0.79113       -0.29241
B          1.81180       -2.75173       -0.19292
B         -4.02857       -2.44633        0.20869
B         -0.00182       -4.69405        0.59290
B          3.02575       -3.43196        0.51147
B          3.19815       -1.78454       -0.13654
B          4.44773       -0.88949        0.35185
B          0.19527        1.91732       -1.05881
B          1.68753        2.77829       -0.31490
B          3.11311        1.81474       -0.25134
B          4.40750        0.88474        0.27607
B          4.39188        2.54165        0.63788
B          3.05519        3.42576        0.39213
B          1.63745        4.31343        0.36486
B          0.23737        3.54562       -0.41952
B          0.18300        4.83996        0.48476
B         -2.56749        3.45668        0.01881
B         -1.21362        4.20096        0.17948
B         -2.59731        1.75400       -0.51904
B         -3.86644        2.59857        0.15580
B         -3.98546        1.00107       -0.30923
B         -1.26062        2.63724       -0.67156
B         -1.51048       -2.76602       -0.58662
B          3.26252       -0.09032       -0.60423
B         -1.21287        0.93137       -0.95268
B          4.45391       -2.52604        0.77245
B         -5.20425       -1.51526        0.78058
B         -5.14608        0.11977        0.46795
B         -5.13851        1.77812        0.71787
B         -6.16500        0.92578        1.47536
B         -6.19204       -0.56432        1.51548
B          1.74368        1.39934       -0.94704
B         -0.76159       -1.95037       -1.67515
B          0.51675       -1.91402       -0.98474
B          5.69659       -1.57137        1.03199
B          5.77923        0.04374        0.95575
B          5.65089        1.59634        0.95555
B          1.33046        0.07192       -0.98918
