45
isomer_2974.log	Energy: -113244.2065540
B         -2.47053        1.71693        0.36444
B         -2.38986        3.32816       -0.35383
B         -1.01852        4.11182       -0.47141
B          0.39420        3.46655        0.34885
B         -1.00045        1.01651        0.80322
B          1.69396        0.84410        0.83534
B          1.79025        4.08961       -0.40476
B         -3.87654        0.99107        0.28643
B          1.81168        2.55830        0.51306
B         -3.74397        2.51647       -0.34820
B          0.41018        4.67099       -0.68749
B          3.17497        3.23712       -0.20383
B          3.16185        1.67525        0.33058
B          4.58155        0.74670        0.13869
B          0.21786       -1.81549        1.44954
B          1.56121       -2.39850        0.42996
B          3.07885       -1.77421        0.38877
B          4.43294       -0.88041       -0.04167
B          4.33648       -2.51597       -0.53116
B          2.87133       -3.22603       -0.30592
B          1.48405       -3.99034       -0.59238
B          0.17742       -2.96858       -0.24552
B          0.07673       -4.46638       -0.86792
B         -2.60655       -3.09957       -0.21867
B         -1.33199       -3.86032       -0.65643
B         -2.61363       -1.64141        0.91958
B         -3.91299       -2.27374       -0.08684
B         -3.94430       -0.72846        0.43624
B         -1.21894       -2.13423       -0.13525
B         -1.08687        2.63802        0.40970
B          3.16815       -0.04280        0.68860
B         -1.07981       -0.55631        0.70306
B          4.52793        2.38374       -0.46632
B         -5.16804        1.76897       -0.60916
B         -5.25328        0.16961       -0.03923
B         -5.26444       -1.47877       -0.39331
B         -6.35316       -0.57350       -1.03090
B         -6.31877        0.90451       -1.09868
B          1.51296       -0.74267        0.92270
B         -1.30278       -1.92750        1.72364
B          0.33846        1.86136        0.97250
B          5.60956        1.40607       -0.89867
B          5.77273       -0.15295       -0.87884
B          5.53940       -1.66669       -0.91757
B          0.23073       -1.18704       -0.18099
