45
isomer_2975.log	Energy: -113346.4175177
B          2.67338       -1.19611        0.71398
B          2.98088       -2.92193        0.50257
B          1.86517       -3.86887       -0.08557
B          0.26042       -2.87656        0.24093
B          0.92375       -0.98556       -0.09885
B         -1.76017       -0.97999        1.12087
B         -0.92621       -3.64687       -0.87629
B          4.06608       -0.27747        0.64413
B         -1.31842       -2.28756        0.11381
B          4.23050       -1.89324        0.33603
B          0.60460       -4.01285       -0.90000
B         -2.40490       -3.19193       -0.77753
B         -2.89667       -1.85573        0.15869
B         -4.39387       -1.16793       -0.21690
B         -0.62257        1.48222        0.62805
B         -2.11143        2.25831        0.60797
B         -3.54701        1.40999        0.58313
B         -4.86428        0.33579        0.38067
B         -4.85727        2.08992       -0.17722
B         -3.59431        2.99331        0.12458
B         -2.27688        3.91531       -0.11166
B         -0.78666        3.13069        0.12046
B         -0.95139        4.57982       -0.49126
B          1.99251        3.37724       -0.32729
B          0.52029        4.03658       -0.45468
B          2.25120        1.74312        0.18967
B          3.47210        2.76776       -0.43060
B          3.80326        1.32442        0.35433
B          0.75653        2.38544        0.07058
B          1.45484       -2.22783        1.31077
B         -3.39176       -0.33092        0.88257
B          0.91329        0.71723        0.59929
B         -3.94029       -2.60533       -1.01493
B          5.40666       -1.08894       -0.25792
B          5.10358        0.57379       -0.36011
B          4.85523        2.17869       -0.85684
B          6.14931        1.36351       -1.27976
B          6.40242       -0.08860       -1.01513
B         -1.94782        0.62311        0.88727
B          1.72995       -2.27776       -0.58309
B         -0.20838       -1.56306        1.27029
B         -5.25875       -1.93791       -1.30832
B         -5.77272       -0.47903       -0.97239
B         -5.79106        1.01890       -0.74895
B          1.20690       -0.54317        1.50465
