45
isomer_2976.log	Energy: -113323.3366765
B          2.46927        1.59677       -0.60640
B          2.38416        3.28751       -0.11768
B          1.01746        4.08618       -0.01328
B         -0.40986        3.35462       -0.68732
B          1.15716        0.73596       -1.17675
B         -1.79444        0.86925       -0.74120
B         -1.77892        4.12531        0.25033
B          3.91721        0.94848       -0.15307
B         -1.85513        2.54620       -0.38474
B          3.72794        2.54413        0.09932
B         -0.36507        4.66585        0.27344
B         -3.15625        3.28236        0.33994
B         -3.21238        1.68760       -0.17928
B         -4.55996        0.76574        0.30567
B         -0.27540       -1.60000       -1.21842
B         -1.62264       -2.46380       -0.40054
B         -3.09111       -1.72454       -0.22223
B         -4.52790       -0.91434        0.21223
B         -4.29023       -2.51211        0.76644
B         -2.90615       -3.28946        0.25868
B         -1.47667       -4.00140        0.27352
B         -0.08120       -3.32266       -0.70721
B         -0.06266       -4.37127        0.56361
B          2.67025       -3.06992        0.46963
B          1.32639       -3.83559        0.50305
B          2.72409       -1.51060       -0.32680
B          3.96817       -2.22785        0.58772
B          4.08056       -0.74534       -0.05879
B          1.61254       -2.69577       -0.76934
B          1.09676        2.47303       -0.71680
B         -3.30683       -0.02243       -0.48860
B          1.37225       -0.89415       -1.21135
B         -4.47510        2.41353        0.80591
B          5.05867        1.88941        0.73086
B          5.25111        0.23994        0.51333
B          5.30511       -1.36649        1.01729
B          6.27188       -0.37518        1.65081
B          6.12081        1.11555        1.56743
B         -1.70437       -0.78658       -0.77523
B          0.73872       -2.45560       -2.01436
B         -0.36026        1.76117       -1.06872
B         -5.53002        1.46407        1.36480
B         -5.64048       -0.09883        1.37595
B         -5.35395       -1.64172        1.39017
B         -0.43352        0.07299       -1.28202
