45
isomer_2977.log	Energy: -112663.5906116
B         -2.61921        1.74426        0.40639
B         -2.60667        3.38103        0.02115
B         -1.19785        4.20686       -0.22393
B          0.25673        3.37271        0.32926
B         -1.16207        0.84972        0.71535
B          1.71269        0.87242        0.80137
B          1.64912        4.15259       -0.36168
B         -4.08000        0.87353        0.33520
B          1.63758        2.47516        0.23567
B         -4.01611        2.56391       -0.12690
B          0.22595        4.81926       -0.50357
B          3.07893        3.30202       -0.37304
B          3.10128        1.68232        0.19853
B          4.55910        0.86437       -0.29523
B          0.27211       -1.68005        0.87553
B          1.65311       -2.38052        0.25188
B          3.11171       -1.57860        0.20941
B          4.56428       -0.75465       -0.28982
B          4.40173       -2.31364       -0.52988
B          3.09974       -3.20219       -0.35133
B          1.67540       -4.06179       -0.33426
B          0.27803       -3.28625        0.35149
B          0.25653       -4.73848       -0.47166
B         -2.58525       -3.31494        0.04350
B         -1.17117       -4.13335       -0.19609
B         -2.60827       -1.67575        0.41781
B         -3.99989       -2.50786       -0.10997
B         -4.07460       -0.81487        0.34083
B         -1.17554       -2.49490        0.58348
B         -1.19175        2.57365        0.56656
B          3.18942        0.15345        0.60028
B         -1.15689       -0.76986        0.72075
B          4.38659        2.42065       -0.54568
B         -5.33769        1.75326       -0.62850
B         -5.32965        0.12290       -0.38914
B         -5.32662       -1.70904       -0.61695
B         -6.49486       -0.75999       -1.22257
B         -6.49983        0.79272       -1.22775
B          1.71795       -0.77359        0.80686
B         -0.26924       -1.82079       -0.29420
B          0.26108        1.77004        0.86401
B          5.89750        1.71372       -0.75720
B          6.09805        0.00091       -0.81645
B          5.90581       -1.72970       -0.81631
B         -0.08728        0.03936        1.80677
