45
isomer_2979.log	Energy: -113357.4429758
B          2.56919       -1.64512        0.57376
B          2.43383       -2.96165       -0.45105
B          1.03722       -3.45028       -1.00326
B         -0.30717       -3.55779        0.06240
B          1.18421       -0.84935        0.92158
B         -1.72515       -0.75887        0.95464
B         -1.71213       -3.54179       -0.95796
B          4.00691       -0.84408        0.35505
B         -1.68507       -2.66468        0.70796
B          3.80048       -2.27051       -0.40600
B         -0.31911       -3.76448       -1.53940
B         -3.06940       -3.10338       -0.37702
B         -3.06657       -1.69190        0.31349
B         -4.47505       -0.69195       -0.09749
B         -0.21896        1.76143        0.80447
B         -1.66580        2.55538        0.34174
B         -3.12428        1.80829        0.28392
B         -4.58744        0.94895        0.18648
B         -4.40726        2.57258       -0.53371
B         -2.98946        3.35467       -0.29789
B         -1.56993        4.13113       -0.44541
B         -0.18484        3.32489        0.24885
B         -0.14038        4.63934       -0.64615
B          2.63556        3.20752       -0.17416
B          1.26159        4.02818       -0.39344
B          2.66837        1.62992        0.51892
B          4.02652        2.41788       -0.13714
B          4.04604        0.81281        0.28612
B          1.27178        2.44007        0.30778
B          1.13417       -2.67821        0.70425
B         -3.22552        0.08522        0.67079
B          1.28026        0.74570        0.83322
B         -4.46414       -2.32147       -0.56089
B          5.29822       -1.58734       -0.52192
B          5.44793       -0.01866        0.04924
B          5.38101        1.63755       -0.44484
B          6.43305        0.69156       -1.05984
B          6.47876       -0.78775       -1.02247
B         -1.68735        0.88499        0.72938
B         -0.27022       -3.17731        1.60077
B         -0.31454       -1.65874        1.32248
B         -5.64018       -1.42571       -0.89960
B         -5.78569        0.11689       -0.88444
B         -5.51883        1.64649       -0.92792
B         -0.24062        0.00959        1.00469
