45
isomer_0298.log	Energy: -113532.9925273
B         -2.60247       -1.46512       -0.44430
B         -2.85294       -3.09094       -0.57343
B         -1.69687       -3.92644        0.06290
B         -0.05838       -3.24627       -0.39413
B         -1.04134       -0.81412       -0.52687
B          1.69768       -0.97019       -1.03042
B          1.05655       -3.71088        0.91391
B         -3.99109       -0.45846       -0.47397
B          1.45518       -2.47949       -0.19396
B         -4.17946       -2.10237       -0.28131
B         -0.50446       -3.94300        1.02365
B          2.54579       -3.20740        0.80249
B          2.90823       -1.80893       -0.10321
B          4.42478       -1.11261        0.20137
B          0.59134        1.60715       -0.77627
B          2.09399        2.29805       -0.58391
B          3.49139        1.42714       -0.57652
B          4.83966        0.40427       -0.41484
B          4.84754        2.12642        0.15643
B          3.56696        3.02529       -0.10928
B          2.27370        3.94257        0.16274
B          0.75907        3.26026       -0.26478
B          0.94165        4.61132        0.53771
B         -2.03593        3.44096        0.42169
B         -0.53338        4.11577        0.47491
B         -2.22835        1.88337       -0.15213
B         -3.51532        2.80745        0.52100
B         -3.78845        1.27418       -0.19523
B         -0.76245        2.55240       -0.21570
B         -1.35129       -2.50403       -1.30406
B          3.33826       -0.29123       -0.83759
B         -0.90290        0.85461       -0.64343
B          4.05732       -2.56787        1.00955
B         -5.39185       -1.22555        0.22213
B         -5.17134        0.48868        0.28374
B         -4.93979        2.12103        0.77403
B         -6.24726        1.25954        1.14505
B         -6.44810       -0.22183        0.89993
B          1.87725        0.63501       -0.87448
B         -2.44709        0.30027       -0.70475
B          0.20129       -1.75421       -1.17855
B          5.38716       -1.89913        1.20389
B          5.84675       -0.42684        0.87380
B          5.81730        1.07430        0.68405
B         -1.32835       -2.28313        0.47815
