45
isomer_2980.log	Energy: -113521.6258133
B         -2.60320       -1.89937       -1.00359
B         -2.23329       -3.11822        0.48003
B         -0.86387       -3.99745        0.34511
B          0.42882       -3.31899       -0.48926
B         -1.00724       -0.80680       -0.70871
B          1.76213       -0.73998       -0.78546
B          1.91625       -4.05506        0.13463
B         -3.86771       -0.98829       -0.40493
B          1.87051       -2.42035       -0.53189
B         -3.58778       -2.36757        0.62787
B          0.51985       -4.61855        0.43954
B          3.25538       -3.22116        0.01885
B          3.31838       -1.62124       -0.44533
B          4.71931       -0.73310       -0.17963
B          0.34997        1.75239       -0.97326
B          1.69487        2.51775       -0.21869
B          3.10698        1.74868       -0.11415
B          4.55091        0.90580        0.19147
B          4.38560        2.50621        0.79557
B          2.98561        3.30700        0.46879
B          1.58692        4.10946        0.45444
B          0.26793        3.40394       -0.43687
B          0.14881        4.69136        0.48446
B         -2.57660        3.35879       -0.19400
B         -1.22679        4.14381        0.05471
B         -2.52841        1.72693       -0.57635
B         -3.94029        2.50066       -0.03651
B         -3.96249        0.83166       -0.35142
B         -1.16201        2.57998       -0.80750
B         -1.09535       -2.50678       -0.67335
B          3.28755        0.09928       -0.66099
B         -1.02485        0.88225       -0.83511
B          4.59324       -2.37764        0.40887
B         -5.04026       -1.69955        0.77657
B         -5.25110       -0.11017        0.16195
B         -5.14041        1.61101        0.53784
B         -6.14787        0.63121        1.27582
B         -6.20843       -0.85709        1.27091
B          1.74900        0.88674       -0.82572
B         -2.12345       -1.39053        0.59009
B          0.44691       -1.64255       -0.91727
B          5.65366       -1.42194        0.93473
B          5.84236        0.09894        0.99468
B          5.59291        1.63943        1.13296
B         -2.44250       -0.02090       -0.40989
