45
isomer_2981.log	Energy: -111766.1103423
B          2.56540       -1.71702        0.36957
B          2.54624       -3.35263       -0.02608
B          1.13493       -4.17866       -0.26388
B         -0.31470       -3.34779        0.30104
B          1.10302       -0.81861        0.68601
B         -1.76699       -0.83882        0.79497
B         -1.70991       -4.11782       -0.38776
B          4.02828       -0.83746        0.28635
B         -1.69766       -2.44629        0.21960
B          3.95264       -2.52500       -0.17972
B         -0.28864       -4.78072       -0.53831
B         -3.13569       -3.26534       -0.38836
B         -3.15762       -1.64800        0.19127
B         -4.61416       -0.82108       -0.29254
B         -0.33213        1.71945        0.87017
B         -1.70724        2.43156        0.25073
B         -3.16346        1.62780        0.21462
B         -4.61493        0.80308       -0.27940
B         -4.45776        2.36628       -0.52007
B         -3.14749        3.25355       -0.34373
B         -1.72901        4.11175       -0.33254
B         -0.32758        3.34259        0.34323
B         -0.31537        4.78569       -0.47561
B          2.54106        3.37552        0.01277
B          1.11729        4.19049       -0.21206
B          2.58608        1.72791        0.38049
B          3.96126        2.55564       -0.15396
B          4.03180        0.86278        0.29445
B          1.12384        2.56198        0.56146
B          1.13440       -2.55528        0.53510
B         -3.24326       -0.11107        0.60029
B          1.09019        0.77204        0.69740
B         -4.45217       -2.38220       -0.55401
B          5.26913       -1.71228       -0.69030
B          5.26983       -0.07815       -0.44670
B          5.27301        1.74726       -0.66963
B          6.42411        0.79556       -1.28418
B          6.42543       -0.75160       -1.29547
B         -1.77047        0.81615        0.80590
B          1.45508        1.36016        0.72606
B         -0.32030       -1.74515        0.84770
B         -5.94479       -1.65668       -0.75182
B         -6.13892        0.04643       -0.80135
B         -5.94642        1.76202       -0.79627
B          1.26365       -1.32802        1.69455
