45
isomer_2984.log	Energy: -111870.7162950
B         -2.61980       -1.59193       -0.52946
B         -2.62185       -3.23713       -0.18175
B         -1.22056       -4.08017        0.04731
B          0.24222       -3.24588       -0.48360
B         -1.15453       -0.70286       -0.81482
B          1.72013       -0.74779       -0.89532
B          1.62645       -4.05305        0.19221
B         -4.07341       -0.71078       -0.44141
B          1.63031       -2.36236       -0.36662
B         -4.02473       -2.41176       -0.01799
B          0.19743       -4.71078        0.31583
B          3.06330       -3.21504        0.22603
B          3.10051       -1.58293       -0.30828
B          4.56400       -0.78880        0.20711
B          0.30115        1.81774       -0.91407
B          1.68653        2.49211       -0.27167
B          3.13826        1.67717       -0.24451
B          4.58275        0.82983        0.23877
B          4.43271        2.38423        0.51410
B          3.13861        3.28757        0.35321
B          1.72155        4.15930        0.35284
B          0.31932        3.41143       -0.35339
B          0.30809        4.84460        0.50273
B         -2.54432        3.45719       -0.05081
B         -1.12399        4.25797        0.21040
B         -2.58021        1.82723       -0.46258
B         -3.96601        2.65875        0.08119
B         -4.05386        0.97720       -0.40840
B         -1.14030        2.63787       -0.60647
B         -1.19899       -2.42943       -0.70559
B          3.20237       -0.04607       -0.67475
B         -1.13578        0.91632       -0.78315
B          4.37789       -2.34888        0.42152
B         -5.34062       -1.60169        0.49928
B         -5.31838        0.03359        0.29730
B         -5.30054        1.85975        0.56698
B         -6.47807        0.90697        1.14828
B         -6.49604       -0.64536        1.11792
B          1.73919        0.89781       -0.86314
B         -0.51554       -2.52379        2.05947
B          0.26120       -1.63149       -0.98153
B          5.89418       -1.65973        0.65232
B          6.10893        0.04953        0.75118
B          5.93118        1.78125        0.79024
B         -0.38067       -0.83772       -0.18692
