45
isomer_2987.log	Energy: -113405.2781556
B          2.50069        1.79220       -0.58042
B          2.42029        3.43350        0.00404
B          1.02589        4.14917        0.16704
B         -0.41413        3.44790       -0.54500
B          1.15951        0.97842       -1.05038
B         -1.83710        0.92698       -0.89191
B         -1.82235        4.10800        0.33550
B          3.88657        1.02693       -0.14936
B         -1.84929        2.56700       -0.36880
B          3.79978        2.63594        0.16537
B         -0.39291        4.64992        0.50955
B         -3.18938        3.27916        0.33579
B         -3.21965        1.70252       -0.20342
B         -4.53381        0.73359        0.28697
B         -0.26602       -1.56821       -0.96989
B         -1.61193       -2.53011       -0.49765
B         -3.10257       -1.72920       -0.25641
B         -4.60803       -0.90340       -0.03780
B         -4.28487       -2.54911        0.61341
B         -2.93414       -3.30739        0.21262
B         -1.46810       -4.01867        0.23633
B         -0.17007       -3.30219       -0.73644
B          0.01137       -4.34749        0.59046
B          2.59936       -3.11030        0.21280
B          1.46045       -3.92179        0.91468
B          2.60274       -1.40841       -0.41618
B          3.93879       -2.22440        0.28584
B          3.94255       -0.64544       -0.10257
B          1.33001       -2.35952       -0.84754
B          1.11491        2.66048       -0.67403
B         -3.29659       -0.00992       -0.60626
B          1.26555       -0.68349       -1.01156
B         -4.52527        2.39876        0.75224
B          5.15277        1.90813        0.62914
B          5.29806        0.24751        0.28967
B          5.26256       -1.42271        0.72783
B          6.31769       -0.47448        1.34589
B          6.25022        1.02343        1.33001
B         -1.70862       -0.78212       -0.71032
B          1.31194       -4.00416       -0.64675
B         -0.40577        1.83891       -1.12325
B         -5.60196        1.45470        1.21676
B         -5.71162       -0.13756        1.16328
B         -5.39414       -1.64165        1.15014
B         -0.30340        0.11857       -1.04943
