45
isomer_2988.log	Energy: -113462.6239644
B          2.07250       -1.51920        0.06678
B          2.47407       -3.29143        0.24913
B          1.30775       -4.20381        0.64856
B         -0.16260       -3.34100        1.10959
B          1.28669       -0.70221        1.30997
B         -1.44857       -0.78813        0.54877
B         -1.33507       -4.20005        0.10965
B          3.48125       -0.77652       -0.40354
B         -1.19268       -2.41869        0.12185
B          3.49673       -2.37501       -0.45226
B         -0.04957       -4.85386        0.48465
B         -2.60335       -3.34959       -0.35675
B         -2.80492       -1.80647        0.04016
B         -4.19797       -0.95362       -0.46822
B         -0.36314        1.82960        1.37146
B         -1.72627        2.54320        0.63769
B         -3.04306        1.69948        0.18051
B         -4.17905        0.71149       -0.61378
B         -4.19250        2.40207       -0.91027
B         -3.00302        3.29198       -0.18191
B         -1.70707        4.20899        0.05918
B         -0.35041        3.47360        0.88518
B         -0.33459        4.86980        0.11250
B          2.39177        3.47518        0.19753
B          1.07459        4.27064        0.34921
B          2.32989        1.75159        0.44905
B          3.57660        2.59803       -0.35395
B          3.47265        0.96887       -0.33193
B          1.17162        2.67282        1.12984
B          1.32922       -2.49059        1.22175
B         -3.03347       -0.07207        0.38806
B         -0.21792        0.02239        1.28725
B         -3.84843       -2.57460       -1.05008
B          4.76495       -1.56450       -1.15968
B          4.61597        0.11054       -1.14311
B          4.81006        1.77011       -1.07697
B          5.93592        0.86166       -1.69024
B          5.91606       -0.64758       -1.72429
B         -1.70881        0.87020        0.98296
B          1.21622        0.98354        1.31740
B         -0.22348       -1.73829        1.67998
B         -4.89677       -1.66551       -1.69679
B         -5.19801       -0.13706       -1.70477
B         -5.13349        1.44309       -1.62995
B          0.22971       -1.35907        0.00984
