45
isomer_0299.log	Energy: -113474.1073814
B          2.30285        1.97841       -0.42688
B          2.13662        3.50886        0.17255
B          0.66822        4.24715        0.25413
B         -0.66438        3.42323       -0.42732
B          0.94996        0.99228       -0.92785
B         -1.85360        0.78360       -0.79723
B         -2.13895        4.05647        0.28645
B          3.72519        1.14790       -0.01445
B         -2.05210        2.46083       -0.46615
B          3.58022        2.81651        0.32013
B         -0.76837        4.72710        0.49388
B         -3.43808        3.13184        0.20069
B         -3.41614        1.55199       -0.34151
B         -4.76173        0.57254       -0.09199
B         -0.30348       -1.60606       -1.20162
B         -1.48155       -2.47852       -0.39928
B         -2.96679       -1.80368       -0.17401
B         -4.46133       -1.05915        0.19732
B         -4.18586       -2.67657        0.68820
B         -2.72981       -3.33396        0.31505
B         -1.25514       -3.97753        0.36669
B          0.17130       -3.22532       -0.40006
B          0.11480       -4.45765        0.67985
B          2.85107       -3.14806        0.58658
B          1.53596       -4.00981        0.64820
B          2.54910       -1.63207       -0.55691
B          3.95007       -2.12049        0.38726
B          3.84517       -0.57582       -0.16891
B          1.99394       -3.29857       -0.77102
B          0.83257        2.68012       -0.53049
B         -3.28875       -0.14669       -0.65593
B          1.01082       -0.61136       -1.03301
B         -4.72217        2.18812        0.57366
B          4.93686        2.06510        0.72698
B          5.22477        0.43401        0.14951
B          5.29836       -1.22975        0.53046
B          6.36287       -0.29122        1.08626
B          6.10829        1.17475        1.28632
B         -1.70163       -0.82518       -0.91801
B          2.36348        0.19622       -0.53442
B         -0.56393        1.77092       -0.91105
B         -5.68112        1.13849        1.09951
B         -5.78782       -0.40480        1.07159
B         -5.45202       -1.92138        1.09484
B          1.16228       -2.21278       -1.46796
