45
isomer_2990.log	Energy: -113232.5656955
B         -2.54250        1.69084        0.48714
B         -2.54769        3.40507        0.00319
B         -1.18552        4.18787       -0.17052
B          0.26599        3.40173        0.38248
B         -1.12949        0.86085        0.86984
B          1.64201        0.88304        0.79287
B          1.67185        4.16551       -0.35155
B         -3.94680        0.88169        0.31910
B          1.66538        2.52378        0.24684
B         -3.87114        2.53362       -0.11514
B          0.22305        4.76033       -0.45630
B          3.02287        3.29383       -0.33859
B          3.05937        1.70450        0.17941
B          4.44831        0.82012       -0.26816
B          0.25475       -1.72563        0.96220
B          1.63877       -2.51048        0.22633
B          3.03252       -1.68483        0.17388
B          4.41121       -0.83348       -0.24573
B          4.39698       -2.52092       -0.61652
B          2.96340       -3.30036       -0.34047
B          1.58638       -4.16212       -0.32379
B          0.20158       -3.37443        0.41196
B          0.13992       -4.73838       -0.42418
B         -2.60613       -3.33851        0.01248
B         -1.25494       -4.15259       -0.14637
B         -2.57922       -1.62418        0.50179
B         -3.92906       -2.45090       -0.12221
B         -3.97595       -0.83774        0.31845
B         -1.25235       -2.53319        0.62802
B         -1.19964        2.56044        0.64100
B          3.14671        0.04157        0.54051
B         -1.20849       -0.71427        0.90497
B          4.45092        2.53453       -0.58539
B         -5.19144        1.71697       -0.64194
B         -5.18525        0.07154       -0.39208
B         -5.25017       -1.58971       -0.64601
B         -6.31241       -0.68878       -1.33364
B         -6.28491        0.84225       -1.33978
B          1.65905       -0.86767        0.74380
B         -0.11169       -0.99473       -0.41086
B          0.27167        1.76585        0.95610
B          5.66602        1.62565       -0.83283
B          5.81683        0.00466       -0.85183
B          5.61996       -1.59903       -0.87511
B          0.30928       -0.03433        1.52663
