45
isomer_2991.log	Energy: -113323.0749473
B         -2.52235        1.80072        0.61077
B         -2.39384        3.45514        0.22307
B         -0.97738        4.24803        0.21274
B          0.39200        3.38248        0.76907
B         -1.20041        0.86388        1.09617
B          1.71527        0.76734        0.85892
B          1.80876        4.14888        0.05546
B         -3.93375        1.07380        0.11538
B          1.81653        2.47644        0.69948
B         -3.68955        2.69536       -0.27001
B          0.43205        4.80520        0.02227
B          3.12321        3.25858       -0.04940
B          3.16471        1.62952        0.27898
B          4.52873        0.72540       -0.15896
B          0.20029       -1.84433        1.33570
B          1.46202       -2.47281        0.21884
B          2.85419       -1.72316       -0.11798
B          4.24999       -0.86660       -0.60474
B          3.93496       -2.39420       -1.30026
B          2.57591       -3.19967       -0.77970
B          1.22318       -4.06319       -0.54379
B          0.33071       -3.58647        0.84508
B         -0.14939       -4.65051       -0.31492
B         -2.68657       -3.14340        0.14784
B         -1.33556       -4.03372        0.48991
B         -2.64179       -1.50781        0.50551
B         -3.83519       -2.23398       -0.34262
B         -3.87237       -0.56410       -0.01695
B         -1.55153       -2.45725        1.29611
B         -1.12346        2.59029        0.83664
B          3.19505       -0.09012        0.48197
B         -1.30658       -0.71231        1.06306
B          4.39475        2.42549       -0.61860
B         -4.87512        1.99299       -1.04957
B         -4.46351        0.33471       -1.26303
B         -4.86575       -1.30857       -1.26701
B         -5.69561       -0.39448       -2.10492
B         -5.77133        1.11593       -1.91451
B          1.62336       -0.88327        0.87100
B         -0.54327       -3.26137        2.07754
B          0.35767        1.76032        1.18192
B          5.33335        1.48227       -1.33300
B          5.42858       -0.04152       -1.56296
B          5.08646       -1.53946       -1.78807
B          0.20254       -0.06049        1.10758
