45
isomer_2992.log	Energy: -111401.9269827
B          2.65211        1.70191       -0.48049
B          2.64395        3.34197       -0.10936
B          1.23731        4.17386        0.12753
B         -0.21924        3.33912       -0.41956
B          1.19267        0.80888       -0.78284
B         -1.68196        0.83899       -0.87123
B         -1.60991        4.12886        0.26358
B          4.11037        0.82768       -0.40070
B         -1.60270        2.44632       -0.31930
B          4.05095        2.52215        0.04678
B         -0.18496        4.79269        0.40081
B         -3.04215        3.28248        0.28119
B         -3.06868        1.65799       -0.27643
B         -4.52918        0.84846        0.22323
B         -0.24859       -1.71809       -0.92233
B         -1.63203       -2.40925       -0.29372
B         -3.08838       -1.60285       -0.25926
B         -4.53896       -0.77053        0.23176
B         -4.38103       -2.32784        0.48535
B         -3.08143       -3.22159        0.31544
B         -1.65953       -4.08534        0.30685
B         -0.25946       -3.31970       -0.38448
B         -0.24269       -4.76485        0.45115
B          2.60350       -3.35387       -0.07409
B          1.18693       -4.16617        0.17146
B          2.63145       -1.71803       -0.46248
B          4.02031       -2.54951        0.07350
B          4.10017       -0.86069       -0.39181
B          1.19653       -2.53451       -0.62218
B          1.22714        2.53394       -0.64888
B         -3.16088        0.12598       -0.66508
B          1.18288       -0.81066       -0.77431
B         -4.35243        2.40634        0.46041
B          5.36985        1.71210        0.55635
B          5.35734        0.07977        0.33102
B          5.34894       -1.75013        0.57459
B          6.51943       -0.79921        1.17290
B          6.52881        0.75346        1.16472
B         -1.69190       -0.80698       -0.86256
B         -0.40259        0.91356        1.39153
B         -0.22775        1.73192       -0.94050
B         -5.86550        1.70556        0.67687
B         -6.07096       -0.00611        0.75071
B         -5.88364       -1.73720        0.76560
B         -0.43410       -1.36085       -0.26176
