45
isomer_2993.log	Energy: -113057.3171772
B         -2.53620        1.74315        0.40700
B         -2.51049        3.39838        0.05063
B         -1.12874        4.21629       -0.16381
B          0.31322        3.37943        0.37192
B         -1.12587        0.91094        0.70164
B          1.75372        0.84364        0.80687
B          1.69940        4.15151       -0.29385
B         -3.95744        0.87919        0.31571
B          1.69581        2.47625        0.26835
B         -3.87780        2.56482       -0.11659
B          0.29147        4.78894       -0.42114
B          3.11328        3.29099       -0.31479
B          3.13890        1.67335        0.21464
B          4.59516        0.83378       -0.27873
B          0.33952       -1.70783        0.84586
B          1.71360       -2.41656        0.20107
B          3.14477       -1.62071        0.17930
B          4.58522       -0.78601       -0.28975
B          4.45512       -2.35085       -0.58473
B          3.10447       -3.22191       -0.41024
B          1.68929       -4.06721       -0.41265
B          0.31266       -3.30967        0.28296
B          0.27958       -4.69208       -0.54345
B         -2.54234       -3.30927       -0.02461
B         -1.14073       -4.11492       -0.26652
B         -2.59090       -1.64881        0.37220
B         -3.94099       -2.47053       -0.17121
B         -3.97966       -0.80903        0.29778
B         -1.13334       -2.52185        0.52485
B         -1.13220        2.59309        0.58991
B          3.22835        0.10035        0.59208
B         -1.08263       -0.75988        0.70402
B          4.46552        2.42228       -0.52198
B         -5.17721        1.77525       -0.63691
B         -5.18782        0.12813       -0.41812
B         -5.20281       -1.65558       -0.66014
B         -6.31343       -0.70076       -1.24356
B         -6.32704        0.82599       -1.24187
B          1.76251       -0.81335        0.78911
B         -2.05051       -0.15767       -0.14650
B          0.30460        1.77121        0.87606
B          5.86726        1.62703       -0.71418
B          6.04642       -0.01159       -0.79025
B          5.84979       -1.64514       -0.81917
B         -0.81150       -1.60278        2.09278
