45
isomer_2994.log	Energy: -111981.9489083
B         -2.58058        1.76315        0.43766
B         -2.55762        3.40520        0.07611
B         -1.14348        4.22607       -0.15452
B          0.30510        3.37538        0.38914
B         -1.12935        0.85557        0.73625
B          1.74533        0.85991        0.82769
B          1.70338        4.15683       -0.28799
B         -4.04637        0.90225        0.35131
B          1.68077        2.47106        0.28506
B         -3.97160        2.59871       -0.08622
B          0.28445        4.83395       -0.42276
B          3.12814        3.29802       -0.30910
B          3.13981        1.67013        0.23907
B          4.59368        0.85072       -0.26386
B          0.28951       -1.68473        0.86244
B          1.66748       -2.38435        0.23120
B          3.13088       -1.59060        0.20289
B          4.58924       -0.76821       -0.28181
B          4.41790       -2.32258       -0.54464
B          3.11033       -3.20584       -0.38125
B          1.68088       -4.05710       -0.37911
B          0.28687       -3.28321        0.31528
B          0.25828       -4.72328       -0.52879
B         -2.57595       -3.29041        0.00183
B         -1.16631       -4.11368       -0.24704
B         -2.58994       -1.65667        0.39973
B         -3.98549       -2.47278       -0.14248
B         -4.05100       -0.78606        0.33259
B         -1.16241       -2.48665        0.55610
B         -1.14853        2.58162        0.61232
B          3.21814        0.13513        0.61887
B         -1.13379       -0.76391        0.71829
B          4.43086        2.41145       -0.49212
B         -5.29703        1.80326       -0.60182
B         -5.29910        0.16960       -0.38599
B         -5.30652       -1.65885       -0.64022
B         -6.46799       -0.69421       -1.23415
B         -6.46373        0.85841       -1.21693
B          1.74082       -0.78601        0.80943
B         -0.89200       -2.22461        1.35321
B          0.29895        1.76517        0.90071
B          5.93794        1.69866       -0.71115
B          6.12844       -0.01428       -0.79476
B          5.92594       -1.74354       -0.81994
B         -0.72433        0.02132       -0.33053
