45
isomer_2998.log	Energy: -113478.6844662
B         -2.56937       -1.70230       -0.61061
B         -2.47799       -3.12697        0.42717
B         -1.11464       -3.88584        0.48391
B          0.14342       -3.31228       -0.57554
B         -1.27557       -0.73591       -0.74598
B          1.67189       -0.74882       -0.71037
B          1.65908       -4.12749        0.12057
B         -3.94328       -0.82230       -0.24692
B          1.66395       -2.46963       -0.36464
B         -3.83751       -2.31056        0.39280
B          0.30877       -4.54528        0.53633
B          3.03233       -3.30499        0.05480
B          3.11990       -1.69599       -0.40011
B          4.58323       -0.83776       -0.16698
B          0.34471        1.86447       -1.04525
B          1.75392        2.55768       -0.43337
B          3.14929        1.75754       -0.21948
B          4.49496        0.79832        0.21873
B          4.42039        2.45979        0.73308
B          3.06453        3.29699        0.36250
B          1.69179        4.14706        0.41784
B          0.31164        3.38720       -0.35726
B          0.28431        4.69304        0.57165
B         -2.49717        3.31203        0.05001
B         -1.12447        4.09493        0.27039
B         -2.52930        1.65184       -0.57119
B         -3.83991        2.50096        0.10179
B         -3.94319        0.91927       -0.28906
B         -1.17166        2.60344       -0.65012
B         -1.31580       -2.73325       -1.06054
B          3.25733        0.06022       -0.67007
B         -1.16161        0.90106       -1.02350
B          4.39659       -2.46029        0.43645
B         -5.22189       -1.52446        0.65660
B         -5.29299        0.07100        0.09335
B         -5.22956        1.72167        0.49914
B         -6.32671        0.86996        1.12982
B         -6.32418       -0.60501        1.21340
B          1.77797        0.90143       -0.93971
B         -1.11405       -2.05821        0.55416
B          0.18468       -1.58763       -0.38715
B          5.45434       -1.53904        0.99639
B          5.73229       -0.01897        1.05407
B          5.56156        1.52653        1.13981
B          0.24796        0.05654       -1.04693
