45
isomer_0003.log	Energy: -113038.2322002
B         -2.73861       -1.50871       -0.47808
B         -2.81563       -3.29079       -0.04723
B         -1.34163       -4.33441        0.20316
B          0.25728       -3.36353       -0.36900
B         -1.28209       -0.61023       -0.79092
B          1.74441       -0.74031       -0.83479
B          1.58137       -4.17664        0.29562
B         -4.07270       -0.63258       -0.39512
B          1.66014       -2.45067       -0.27498
B         -4.09194       -2.33485        0.04262
B          0.15219       -4.83018        0.41524
B          3.02881       -3.29779        0.29447
B          3.11373       -1.64700       -0.23598
B          4.57408       -0.81847        0.24365
B          0.32698        1.83205       -0.88741
B          1.74476        2.50009       -0.25633
B          3.17420        1.67172       -0.22317
B          4.59956        0.81470        0.25354
B          4.50105        2.39022        0.53818
B          3.15874        3.27617        0.34723
B          1.75527        4.15167        0.34059
B          0.35985        3.42597       -0.34589
B          0.36143        4.79360        0.46810
B         -2.48064        3.47780       -0.03942
B         -1.06050        4.25901        0.20049
B         -2.53990        1.85296       -0.43214
B         -3.87551        2.67079        0.09821
B         -4.00258        1.04798       -0.37220
B         -1.11403        2.66361       -0.59020
B         -1.30249       -2.38533       -0.67367
B          3.23114       -0.04915       -0.62601
B         -1.12316        0.98450       -0.73863
B          4.43317       -2.42397        0.49845
B         -5.33870       -1.48986        0.54960
B         -5.25617        0.14907        0.33538
B         -5.17925        1.90685        0.57830
B         -6.33710        1.00996        1.15250
B         -6.42237       -0.50545        1.14840
B          1.77217        0.90636       -0.82723
B         -1.29698       -2.92126        0.52840
B          0.27720       -1.68259       -0.94941
B          5.81848       -1.62685        0.67450
B          6.02180        0.01201        0.74364
B          5.87442        1.62778        0.76489
B          0.14974       -0.30426       -0.32731
