45
isomer_0300.log	Energy: -112238.8460277
B          2.60962       -1.57231        0.36348
B          2.63265       -3.20389       -0.04274
B          1.24183       -4.05940       -0.28878
B         -0.22788       -3.26678        0.28509
B          1.13420       -0.71626        0.69393
B         -1.73856       -0.80760        0.79938
B         -1.60655       -4.07030       -0.40627
B          4.04908       -0.66665        0.29350
B         -1.63000       -2.40080        0.21256
B          4.02148       -2.35205       -0.18991
B         -0.16921       -4.70148       -0.56651
B         -3.05592       -3.25349       -0.39686
B         -3.11209       -1.64217        0.19568
B         -4.59216       -0.85249       -0.27746
B         -0.35763        1.77686        0.89656
B         -1.75908        2.45257        0.29149
B         -3.19877        1.61720        0.24869
B         -4.63520        0.76577       -0.25115
B         -4.51091        2.33107       -0.47219
B         -3.22883        3.24763       -0.29114
B         -1.82492        4.14018       -0.27276
B         -0.40490        3.38902        0.39332
B         -0.42329        4.85172       -0.41116
B          2.45464        3.48891        0.06610
B          1.02012        4.27685       -0.15321
B          2.51871        1.84608        0.41907
B          3.88665        2.71732       -0.10747
B          4.00420        1.02095        0.32094
B          1.06842        2.62916        0.60512
B          1.20316       -2.43699        0.52273
B         -3.23312       -0.12103        0.61772
B          1.09114        0.90255        0.72026
B         -4.38506       -2.40096       -0.54914
B          5.32009       -1.50424       -0.69007
B          5.27560        0.12230       -0.42966
B          5.22805        1.95641       -0.63380
B          6.41383        1.04286       -1.25961
B          6.45510       -0.50911       -1.28485
B         -1.78231        0.83763        0.82613
B          2.28870       -2.24982        1.55599
B         -0.26592       -1.67159        0.84048
B         -5.91358       -1.72711       -0.74116
B         -6.15459       -0.01886       -0.77694
B         -6.00292        1.71565       -0.75580
B          0.29614       -0.92333        0.08040
