45
isomer_3001.log	Energy: -112443.2995916
B         -2.60255        1.72909        0.42503
B         -2.58655        3.36929        0.05481
B         -1.17586        4.19520       -0.17892
B          0.27599        3.35385        0.37052
B         -1.14758        0.82957        0.72971
B          1.72697        0.84716        0.82365
B          1.67139        4.13792       -0.30950
B         -4.06443        0.86123        0.34195
B          1.65576        2.45512        0.27244
B         -3.99679        2.55568       -0.10449
B          0.24960        4.80800       -0.44911
B          3.09997        3.28535       -0.32481
B          3.11838        1.66045        0.23198
B          4.57632        0.84486       -0.26531
B          0.28243       -1.70370        0.87060
B          1.66407       -2.40052        0.24428
B          3.12396       -1.60044        0.21306
B          4.57909       -0.77415       -0.27470
B          4.41489       -2.33063       -0.52945
B          3.11111       -3.21882       -0.36253
B          1.68546       -4.07639       -0.35715
B          0.28739       -3.30505        0.33190
B          0.26596       -4.74967       -0.50455
B         -2.57509       -3.32663        0.01597
B         -1.16158       -4.14494       -0.22729
B         -2.59669       -1.69089        0.40520
B         -3.98811       -2.51606       -0.13391
B         -4.06153       -0.82715        0.33216
B         -1.16563       -2.51368        0.56722
B         -1.17431        2.55484        0.59662
B          3.20318        0.12785        0.61997
B         -1.14480       -0.78999        0.72031
B          4.40679        2.40362       -0.50199
B         -5.31821        1.75163       -0.61704
B         -5.31322        0.11914       -0.39257
B         -5.31228       -1.71064       -0.63712
B         -6.47749       -0.75434       -1.23717
B         -6.48015        0.79836       -1.22817
B          1.72979       -0.79883        0.81411
B         -0.85024       -0.99531        1.83312
B          0.27653        1.74636        0.89061
B          5.91721        1.69640       -0.71590
B          6.11539       -0.01611       -0.79028
B          5.92059       -1.74636       -0.80648
B         -0.16517       -0.14067       -0.75678
