45
isomer_3002.log	Energy: -113675.8866436
B          2.56268       -1.73085        0.53008
B          2.51251       -3.30386       -0.03765
B          1.15535       -4.14888       -0.10978
B         -0.26985       -3.40268        0.53879
B          1.16979       -0.85070        1.06808
B         -1.71855       -0.84312        0.78944
B         -1.64317       -4.16939       -0.25798
B          3.98401       -0.84618        0.22476
B         -1.72521       -2.55088        0.43169
B          3.86877       -2.48543       -0.27661
B         -0.22126       -4.74793       -0.35311
B         -3.00929       -3.33973       -0.27803
B         -3.12971       -1.73271        0.22191
B         -4.54702       -0.89314       -0.14588
B         -0.36848        1.82533        1.11715
B         -1.80131        2.53270        0.48793
B         -3.17301        1.68093        0.26019
B         -4.53198        0.79873       -0.23751
B         -4.40597        2.44489       -0.75007
B         -3.09104        3.28102       -0.26628
B         -1.74704        4.14445       -0.24612
B         -0.35013        3.38496        0.51489
B         -0.34039        4.74562       -0.35231
B          2.42836        3.33426       -0.03991
B          1.04856        4.15696       -0.12281
B          2.50971        1.75944        0.48879
B          3.81038        2.53659       -0.29238
B          3.95693        0.90973        0.21605
B          1.11992        2.58966        0.76555
B          1.18527       -2.57772        0.78837
B         -3.29391       -0.01550        0.60938
B          1.13017        0.84848        1.04204
B         -4.32703       -2.49899       -0.77001
B          5.10386       -1.65260       -0.84581
B          5.19566        0.04344       -0.52274
B          5.06116        1.73775       -0.86439
B          6.08444        0.81291       -1.61286
B          6.10420       -0.70782       -1.60611
B         -1.78576        0.83073        0.91098
B          2.61003        0.01576        0.74621
B         -0.31326       -1.83069        1.08789
B         -5.37382       -1.56912       -1.33813
B         -5.61967       -0.03274       -1.30521
B         -5.47204        1.51917       -1.30270
B         -0.34286       -0.00284        1.09420
