45
isomer_3003.log	Energy: -113474.1057580
B         -2.54806       -1.63179       -0.55592
B         -2.84970       -3.14898        0.58905
B         -1.53377       -4.00929        0.64998
B         -0.17080       -3.22507       -0.39960
B         -1.00983       -0.61123       -1.03266
B          1.70049       -0.82397       -0.91771
B          1.25692       -3.97702        0.36657
B         -3.84495       -0.57710       -0.16832
B          1.48236       -2.47819       -0.39975
B         -3.94877       -2.12190        0.38836
B         -0.11262       -4.45700        0.68057
B          2.73112       -3.33305        0.31394
B          2.96703       -1.80217       -0.17461
B          4.46230       -1.05818        0.19556
B          0.56365        1.77098       -0.91105
B          2.05089        2.46109       -0.46461
B          3.41556        1.55265       -0.34057
B          4.76205        0.57398       -0.09237
B          4.72136        2.18904        0.57457
B          3.43677        3.13217        0.20247
B          2.13710        4.05624        0.28894
B          0.66306        3.42319       -0.42545
B          0.76614        4.72649        0.49638
B         -2.13829        3.50831        0.17074
B         -0.67028        4.24641        0.25474
B         -2.30369        1.97762       -0.42829
B         -3.58219        2.81624        0.31720
B         -3.72580        1.14795       -0.01571
B         -0.83351        2.67958       -0.53139
B         -1.99398       -3.29786       -0.76889
B          3.28886       -0.14587       -0.65648
B         -0.95028        0.99222       -0.92815
B          4.18741       -2.67552        0.68633
B         -5.29752       -1.23201        0.53074
B         -5.22396        0.43192        0.15043
B         -4.93879        2.06435        0.72420
B         -6.10984        1.17378        1.28436
B         -6.36187       -0.29302        1.08688
B          1.85422        0.78423       -0.79815
B         -2.36358        0.19548       -0.53436
B          0.30390       -1.60723       -1.20256
B          5.45340       -1.92036        1.09282
B          5.78859       -0.40345        1.07050
B          5.68099        1.13945        1.09951
B         -1.16212       -2.21311       -1.46823
