45
isomer_3007.log	Energy: -113452.0575125
B         -2.55535        1.66371        0.62513
B         -2.56276        3.35973       -0.00582
B         -1.20478        4.16518       -0.16522
B          0.27104        3.43717        0.45730
B         -1.17769        0.87178        0.93312
B          1.72540        0.88796        0.91752
B          1.62619        4.20573       -0.33665
B         -3.95824        0.91112        0.30169
B          1.67367        2.54657        0.39641
B         -3.86087        2.47461       -0.10186
B          0.21292        4.76778       -0.44234
B          2.98376        3.33800       -0.34106
B          3.11541        1.80224        0.28223
B          4.49716        0.88324       -0.13036
B          0.24151       -1.70961        0.80081
B          1.71782       -2.45061        0.46145
B          3.12632       -1.65619        0.37428
B          4.49093       -0.76897       -0.07499
B          4.39430       -2.40053       -0.59256
B          3.03600       -3.24954       -0.16723
B          1.72133       -4.10015       -0.18942
B          0.20713       -3.35295        0.57058
B          0.35578       -4.59453       -0.49832
B         -2.40319       -3.18113       -0.28080
B         -1.06301       -3.95246       -0.38717
B         -2.48518       -1.65648        0.49850
B         -3.78467       -2.36295       -0.35059
B         -3.93470       -0.86979        0.21732
B         -1.29974       -2.72603        1.15890
B         -1.20975        2.57925        0.54136
B          3.25789        0.07484        0.66117
B         -1.16388       -0.79267        0.76968
B          4.31560        2.51285       -0.73386
B         -5.21539        1.68659       -0.57057
B         -5.21650        0.03542       -0.28278
B         -5.15469       -1.58762       -0.73221
B         -6.24963       -0.67059       -1.35282
B         -6.27740        0.81710       -1.27059
B          1.71044       -0.77023        0.97194
B         -0.95733       -2.15864       -0.46152
B          0.27143        1.81256        0.83922
B          5.42442        1.58500       -1.23584
B          5.63124        0.05722       -1.18136
B          5.45520       -1.50377       -1.14863
B          0.27185        0.03978        1.25597
