45
isomer_3008.log	Energy: -113590.6652233
B         -1.90175        2.02514        0.32409
B         -1.66883        3.64322       -0.11369
B         -0.25467        4.32255        0.08574
B          0.97666        3.39444        0.92834
B         -0.97403        1.17223        1.47624
B          1.86382        0.54243        1.16478
B          2.46384        3.87342        0.09748
B         -3.07235        1.25173       -0.53481
B          2.21310        2.25728        0.84719
B         -3.00331        2.92353       -0.65399
B          1.22304        4.69592       -0.01790
B          3.59179        2.73426       -0.02668
B          3.34633        1.17160        0.36027
B          4.24998        0.03143       -0.56701
B          0.28820        0.07539        1.53840
B          0.76629       -2.48080        0.08193
B          2.29474       -2.07520       -0.18037
B          3.90040       -1.61945       -0.51244
B          3.24748       -3.06763       -1.20368
B          1.77854       -3.63109       -0.62618
B          0.40296       -4.17954       -0.12110
B         -0.83922       -2.96191        0.46766
B         -0.80290       -4.59588        0.71823
B         -2.76864       -3.02269        0.58390
B         -1.87481       -3.87547        1.52215
B         -2.13366       -1.47836        0.25004
B         -3.66978       -2.06994       -0.40492
B         -3.29264       -0.45870       -0.47185
B         -1.72585       -2.15214        1.80899
B         -0.65034        2.83509        0.98852
B          2.97344       -0.51264        0.37844
B         -1.90204        0.23806        0.38247
B          4.61801        1.69152       -0.74381
B         -4.30452        2.23264       -1.32302
B         -4.42825        0.54039       -1.17917
B         -4.75226       -1.14806       -1.10147
B         -5.77800       -0.07649       -1.74634
B         -5.54767        1.41436       -1.88163
B          1.29506       -0.96998        0.68150
B         -1.28504       -0.57207        1.84262
B          0.70455        1.83613        1.45017
B          5.37789        0.60224       -1.50514
B          5.08019       -0.91660       -1.71167
B          4.40968       -2.34991       -1.83560
B         -0.43547       -1.29041        0.48330
