45
isomer_3009.log	Energy: -113218.2966052
B         -2.69950       -1.52730       -0.45889
B         -2.68642       -3.21672        0.02549
B         -1.34903       -3.97780        0.29907
B          0.15267       -3.30216       -0.33717
B         -1.27811       -0.72321       -0.83952
B          1.68213       -0.80391       -0.83174
B          1.51312       -4.03803        0.45882
B         -4.03783       -0.64198       -0.32854
B          1.62701       -2.45765       -0.22743
B         -4.04465       -2.27490        0.17167
B          0.04622       -4.56866        0.60979
B          2.92148       -3.23865        0.42803
B          3.07282       -1.69733       -0.16270
B          4.49456       -0.86796        0.25993
B          0.38908        1.74893       -0.93652
B          1.80739        2.49036       -0.32516
B          3.20209        1.64913       -0.25152
B          4.54230        0.77385        0.20635
B          4.56629        2.44013        0.53673
B          3.18774        3.25135        0.26415
B          1.81460        4.13043        0.27624
B          0.40170        3.39842       -0.42437
B          0.40461        4.73731        0.40058
B         -2.43610        3.42677       -0.09411
B         -1.05218        4.18457        0.10782
B         -2.52526        1.73835       -0.45424
B         -3.84281        2.61852        0.14663
B         -3.97979        1.02689       -0.34092
B         -1.12842        2.61690       -0.63611
B         -1.31246       -2.29959       -0.28803
B          3.25472       -0.06342       -0.59190
B         -1.08779        0.87975       -0.77315
B          4.40715       -2.50998        0.68539
B         -5.23756       -1.45890        0.74664
B         -5.20362        0.21637        0.48049
B         -5.12958        1.91961        0.69963
B         -6.26908        1.02890        1.36581
B         -6.30678       -0.46530        1.41586
B          1.74918        0.87092       -0.85698
B         -1.40270       -2.96061       -1.66678
B          0.23293       -1.72999       -0.99617
B          5.65944       -1.68041        0.93775
B          5.89698       -0.07491        0.90000
B          5.76982        1.49658        0.87099
B          0.21362       -0.06467       -0.47189
