45
isomer_0301.log	Energy: -110951.5136408
B          2.58905        1.75635       -0.42265
B          2.57086        3.39846       -0.06107
B          1.15910        4.22351        0.16923
B         -0.29186        3.37712       -0.37480
B          1.13521        0.85309       -0.72161
B         -1.73942        0.86593       -0.81374
B         -1.68798        4.16270        0.30201
B          4.05226        0.89111       -0.33596
B         -1.67023        2.47688       -0.27107
B          3.98241        2.58779        0.10158
B         -0.26709        4.83561        0.43714
B         -3.11528        3.30811        0.32276
B         -3.13165        1.68027       -0.22544
B         -4.58805        0.86516        0.27712
B         -0.29113       -1.68301       -0.84818
B         -1.67132       -2.37855       -0.21729
B         -3.13238       -1.58048       -0.18932
B         -4.58842       -0.75378        0.29505
B         -4.42174       -2.30865        0.55789
B         -3.11675       -3.19578        0.39480
B         -1.68983       -4.05126        0.39299
B         -0.29336       -3.28150       -0.30105
B         -0.26924       -4.72165        0.54300
B          2.56935       -3.29717        0.01309
B          1.15722       -4.11628        0.26160
B          2.58827       -1.66348       -0.38477
B          3.98127       -2.48373        0.15776
B          4.05188       -0.79720       -0.31726
B          1.15833       -2.48923       -0.54150
B          1.15947        2.57907       -0.59764
B         -3.21443        0.14552       -0.60528
B          1.13485       -0.76641       -0.70367
B         -4.42067        2.42540        0.50545
B          5.30535        1.78841        0.61749
B          5.30264        0.15475        0.40164
B          5.30457       -1.67372        0.65584
B          6.46875       -0.71253        1.25006
B          6.46910        0.84010        1.23287
B         -1.73979       -0.77999       -0.79551
B          0.90539        0.20577       -0.38976
B         -0.29036        1.76690       -0.88640
B         -5.92991        1.71707        0.72410
B         -6.12550        0.00470        0.80764
B         -5.92812       -1.72515        0.83283
B          0.56920       -2.45023       -1.24997
