45
isomer_3010.log	Energy: -113458.6705367
B         -2.55169        1.65762        0.63621
B         -2.54376        3.37872        0.06007
B         -1.19748        4.14496       -0.01532
B          0.26766        3.43685        0.65632
B         -1.20401        0.93482        1.07069
B          1.74764        0.92742        0.98297
B          1.63837        4.16163       -0.19924
B         -3.90679        0.90730        0.15535
B          1.70276        2.57188        0.47211
B         -3.80315        2.50947       -0.19730
B          0.21374        4.70816       -0.31241
B          3.00830        3.32665       -0.27142
B          3.08398        1.75133        0.22085
B          4.35641        0.79250       -0.40264
B          0.29315       -1.73355        1.46243
B          1.41557       -2.41053        0.05447
B          3.00361       -1.71520        0.11250
B          4.46188       -0.86431       -0.11105
B          4.21031       -2.49811       -0.76375
B          2.87784       -3.28389       -0.29775
B          1.56021       -4.13987       -0.00184
B          0.23679       -3.33107        0.94466
B          0.18722       -4.71765        0.08449
B         -2.51709       -3.31704       -0.05080
B         -1.21900       -4.12758        0.19193
B         -2.56246       -1.61149        0.43436
B         -3.79702       -2.45754       -0.31804
B         -3.88956       -0.85832        0.09764
B         -1.07999       -2.40949        0.25491
B         -1.20655        2.57598        0.75326
B          3.14984        0.00355        0.49971
B         -1.21465       -0.74393        0.84129
B          4.32735        2.46998       -0.77028
B         -5.09523        1.68537       -0.76988
B         -5.14899        0.02997       -0.45457
B         -5.11066       -1.61406       -0.87810
B         -6.12583       -0.70469       -1.56341
B         -6.12582        0.79219       -1.52302
B          1.58069       -0.75080        0.51615
B          0.24825        0.00578        1.24828
B          0.32323        1.81916        1.21200
B          5.42252        1.54250       -1.28431
B          5.56962       -0.03444       -1.27736
B          5.31127       -1.55750       -1.26906
B          0.10149       -1.25272       -0.23109
