45
isomer_3014.log	Energy: -112801.0809502
B         -2.72122       -1.76486       -0.41502
B         -2.34032       -3.41345       -0.01284
B         -0.84426       -4.17821        0.20072
B          0.62634       -3.44958       -0.39374
B         -1.13139       -0.91616       -0.84132
B          1.95847       -0.73637       -0.97045
B          2.06725       -4.06267        0.43553
B         -4.06639       -0.98195       -0.30231
B          2.14251       -2.44368       -0.25304
B         -3.86606       -2.66305        0.21488
B          0.64521       -4.65954        0.56781
B          3.45072       -3.13429        0.46710
B          3.39958       -1.52395       -0.18069
B          4.67336       -0.53483        0.34814
B          0.09242        1.89060       -0.99805
B          1.47092        2.55381       -0.34462
B          2.97623        1.85305       -0.22909
B          4.46839        1.09338        0.32683
B          4.19715        2.70916        0.61702
B          2.77781        3.42551        0.31745
B          1.37041        4.21214        0.29227
B          0.01274        3.45612       -0.42429
B         -0.06337        4.79873        0.43061
B         -2.84234        3.36593       -0.05029
B         -1.49094        4.21369        0.14908
B         -2.81521        1.69088       -0.48669
B         -4.17094        2.39771        0.13764
B         -4.16789        0.74801       -0.31679
B         -1.44250        2.67102       -0.65617
B         -1.02800       -2.69987       -0.64635
B          3.29251        0.13580       -0.60773
B         -1.40113        1.09413       -0.82905
B          4.73814       -2.17222        0.71773
B         -5.16576       -1.92110        0.77568
B         -5.26792       -0.23849        0.49736
B         -5.35083        1.50580        0.70505
B         -6.38512        0.49158        1.38851
B         -6.31306       -1.01774        1.42476
B          1.73090        0.95731       -0.92144
B         -2.02199       -0.25050       -0.63433
B          0.14355       -1.53559       -0.99376
B          5.94338       -1.17761        0.96217
B          5.93393        0.44628        0.95925
B          5.57150        2.02651        0.92983
B          1.21322       -2.26141       -1.35736
