45
isomer_3015.log	Energy: -113478.6695371
B          2.52939        1.65062       -0.57359
B          2.49682        3.31129        0.05005
B          1.12442        4.09400        0.27098
B         -0.31213        3.38763       -0.35740
B          1.16067        0.90171       -1.02623
B         -1.77788        0.90135       -0.93847
B         -1.69188        4.14673        0.41909
B          3.94463        0.91934       -0.29374
B         -1.75390        2.55714       -0.43231
B          3.83930        2.50038        0.10063
B         -0.28442        4.69240        0.57292
B         -3.06475        3.29665        0.36316
B         -3.14990        1.75742       -0.21976
B         -4.49458        0.79736        0.21938
B         -0.18436       -1.58694       -0.38803
B         -1.66310       -2.46973       -0.36295
B         -3.11967       -1.69658       -0.40081
B         -4.58323       -0.83823       -0.16684
B         -4.39635       -2.46070        0.43600
B         -3.03196       -3.30512        0.05506
B         -1.65823       -4.12684        0.12356
B         -0.14269       -3.31192       -0.57429
B         -0.30783       -4.54289        0.54002
B          2.47867       -3.12512        0.42717
B          1.11535       -3.88319        0.48672
B          2.56987       -1.70170       -0.61250
B          3.83882       -2.30942        0.38967
B          3.94662       -0.82311       -0.25537
B          1.31657       -2.73442       -1.06001
B          1.17146        2.60305       -0.64950
B         -3.25793        0.05973       -0.67109
B          1.27590       -0.73524       -0.74821
B         -4.42055        2.45904        0.73319
B          5.22726        1.72173        0.50247
B          5.29173        0.07165        0.09760
B          5.22277       -1.52457        0.65487
B          6.32257       -0.60504        1.21701
B          6.32267        0.87016        1.13655
B         -1.67286       -0.74934       -0.71388
B          1.11482       -2.05534        0.55339
B         -0.34518        1.86463       -1.04476
B         -5.56166        1.52552        1.14040
B         -5.73240       -0.02019        1.05415
B         -5.45442       -1.54012        0.99612
B         -0.24844        0.05623       -1.05044
