45
isomer_3017.log	Energy: -113415.9213023
B          2.19628        1.88649       -0.36156
B          1.90181        3.45662        0.18225
B          0.49420        4.20375        0.02644
B         -0.78949        3.39481       -0.78347
B          0.85869        0.83215       -1.04459
B         -1.82578        0.68700       -0.85650
B         -2.26729        4.02605       -0.11178
B          3.68874        1.25341       -0.05526
B         -2.10175        2.36381       -0.73810
B          3.25478        2.69941        0.69282
B         -0.95803        4.73234        0.10168
B         -3.52046        3.01596       -0.04966
B         -3.43482        1.41399       -0.40949
B         -4.64425        0.35648        0.13020
B         -0.11431       -1.62227       -1.12357
B         -1.35662       -2.58824       -0.37044
B         -2.78901       -1.93306        0.00050
B         -4.29521       -1.24413        0.39055
B         -3.87701       -2.81818        1.02085
B         -2.50202       -3.48585        0.46065
B         -1.02760       -4.17149        0.30369
B          0.13857       -3.29331       -0.57894
B          0.41867       -4.63475        0.24723
B          2.95718       -3.04320       -0.47709
B          1.72063       -3.94180       -0.21138
B          2.74915       -1.34836       -1.01133
B          4.17362       -2.10697       -0.19564
B          3.97516       -0.42023       -0.30832
B          1.47389       -2.33263       -0.98086
B          0.74900        2.64394       -0.66325
B         -3.17991       -0.30832       -0.52970
B          1.30036       -0.65798       -1.74085
B         -4.66308        2.06210        0.56705
B          4.57795        2.03461        1.30108
B          4.98634        0.47421        0.67975
B          5.13037       -1.24401        0.70750
B          5.88808       -0.28797        1.75260
B          5.70999        1.19346        1.93899
B         -1.54794       -0.90172       -0.72511
B          2.28001        0.16577       -0.27408
B         -0.61131        1.70289       -1.10585
B         -5.52575        1.02356        1.29333
B         -5.47674       -0.49953        1.43013
B         -5.03196       -2.01560        1.56225
B          0.91691       -0.72318       -0.08274
