45
isomer_0302.log	Energy: -113559.6337317
B          2.41023        1.92423       -0.51182
B          2.24031        3.44084        0.15183
B          0.77440        4.18138        0.24668
B         -0.57693        3.37212       -0.39920
B          0.97964        0.92219       -0.96812
B         -1.79434        0.72379       -0.72151
B         -2.03789        4.03546        0.25382
B          3.80401        1.07182       -0.09736
B         -1.97782        2.41078       -0.45605
B          3.66043        2.76991        0.34815
B         -0.67173        4.69328        0.48728
B         -3.36252        3.12689        0.14557
B         -3.36978        1.53641       -0.35099
B         -4.73928        0.59404       -0.20816
B         -0.22254       -1.68011       -1.04566
B         -1.57001       -2.53422       -0.40251
B         -3.02432       -1.83039       -0.17999
B         -4.51778       -1.03577        0.13089
B         -4.28004       -2.67949        0.63914
B         -2.85502       -3.37198        0.31154
B         -1.36845       -4.08951        0.36070
B         -0.09313       -3.31400       -0.47365
B          0.06616       -4.55281        0.52459
B          2.71740       -3.04018        0.01223
B          1.43186       -3.89359        0.16596
B          2.74828       -1.47601       -0.77448
B          4.05382       -2.17965        0.29513
B          4.17485       -0.62987       -0.91634
B          1.33937       -2.39808       -0.72345
B          0.89440        2.60956       -0.49534
B         -3.27030       -0.17058       -0.66051
B          1.08056       -0.71950       -1.03567
B         -4.68977        2.21135        0.47547
B          4.90090        1.89064        0.85676
B          5.31355        0.27386        0.11096
B          5.39045       -1.36049        0.15970
B          4.93799       -0.92077        1.62964
B          4.65878        0.61644        1.71439
B         -1.67565       -0.86277       -0.84004
B          3.59297       -0.52718        0.74518
B         -0.47825        1.69086       -0.84976
B         -5.66803        1.17982        0.98755
B         -5.83965       -0.35706        0.96374
B         -5.53998       -1.87037        1.01601
B          2.45283        0.21869       -0.62228
