45
isomer_3020.log	Energy: -113512.2533488
B          2.46353       -1.84221        0.22139
B          2.77053       -3.52763       -0.20122
B          1.56280       -4.48950       -0.26440
B         -0.22100       -3.02170        0.64199
B         -0.12634       -0.05809        1.14198
B         -1.70710       -0.76096        0.87433
B         -1.48489       -3.90871       -0.16811
B          3.65807       -0.77099       -0.09993
B         -1.79140       -2.50976        0.82728
B          3.95824       -2.44330       -0.31718
B          0.05947       -4.28502       -0.36085
B         -2.95447       -3.36644       -0.04151
B         -3.15091       -1.72549        0.40130
B         -4.54801       -0.94242       -0.04731
B         -0.40523        1.86058        1.17074
B         -1.78225        2.53047        0.41045
B         -3.10971        1.64655        0.05184
B         -4.50799        0.71547       -0.32590
B         -4.36846        2.32217       -0.92178
B         -3.08441        3.20713       -0.43807
B         -1.74419        4.10555       -0.39104
B         -0.42263        3.48106        0.52194
B         -0.35561        4.74746       -0.45511
B          2.38990        3.43532        0.03815
B          1.04840        4.23921       -0.04706
B          2.36735        1.77471        0.51039
B          3.72233        2.54794       -0.19188
B          3.62047        0.86756       -0.02573
B          1.09399        2.73823        0.85160
B          0.96648       -1.38568        0.61831
B         -3.22497       -0.01851        0.55397
B          1.08143        1.06507        1.27689
B         -4.32335       -2.62506       -0.51879
B          5.19517       -1.57050       -0.69081
B          5.02422        0.09675       -0.56233
B          5.04257        1.81353       -0.62639
B          6.26672        0.93877       -1.11348
B          6.34431       -0.57642       -1.14680
B         -1.71315        0.87034        0.84549
B          1.19108       -2.87990       -0.20316
B         -0.46796       -1.66317        1.52018
B         -5.35953       -1.73562       -1.16820
B         -5.60389       -0.19193       -1.28723
B         -5.45176        1.35788       -1.41301
B          2.08215       -0.06272        0.54909
