45
isomer_3021.log	Energy: -113595.3826004
B          2.84046       -1.64320        0.84038
B          2.87812       -3.25713        0.24973
B          1.48403       -4.03065        0.13297
B          0.04126       -3.14625        0.64525
B          2.47480       -0.00207        0.50044
B         -1.77687       -0.90213        0.74511
B         -1.32377       -4.07781       -0.30430
B          4.01479       -0.67156        0.14446
B         -1.53179       -2.58522        0.39200
B          4.21050       -2.39630       -0.00638
B          0.11297       -4.49773       -0.29324
B         -2.79646       -3.44441       -0.36699
B         -2.93350       -1.81359       -0.06177
B         -4.34814       -1.03105       -0.51805
B         -0.49254        1.71374        1.15276
B         -1.95413        2.44780        0.45457
B         -3.34944        1.58970        0.36965
B         -4.68092        0.57669       -0.08834
B         -4.61181        2.24109       -0.59693
B         -3.35241        3.19738       -0.15424
B         -2.01470        4.05732       -0.08902
B         -0.55817        3.37499        0.77945
B         -0.60007        4.58635       -0.25703
B          2.24766        3.39891       -0.03621
B          0.86075        4.14299       -0.00309
B          2.35007        1.76082        0.40001
B          3.63391        2.63838       -0.42639
B          3.77501        1.01371       -0.08313
B          0.92075        2.54661        0.52390
B          1.46560       -2.36103        0.48040
B         -3.29364       -0.17746        0.47446
B          1.01452        0.85942        0.82847
B         -4.20580       -2.71433       -0.82711
B          5.34811       -1.45676       -0.64770
B          5.19069        0.28452       -0.56979
B          4.91546        1.92793       -1.00496
B          6.05361        1.03025       -1.65397
B          6.24082       -0.46078       -1.49009
B         -1.86156        0.79976        0.68428
B         -0.42312       -0.02131        1.35503
B          1.03886       -0.80729        0.81751
B         -5.42722       -1.88196       -1.28973
B         -5.70085       -0.32466       -1.27941
B         -5.55400        1.21717       -1.25235
B         -0.32182       -1.70087        1.32938
