45
isomer_3022.log	Energy: -111552.5012414
B          2.55129        1.70108       -0.51059
B          2.54245        3.33992       -0.13412
B          1.13583        4.16829        0.11495
B         -0.32276        3.33245       -0.42497
B          1.09157        0.80616       -0.80595
B         -1.78364        0.83092       -0.87482
B         -1.71031        4.11726        0.27009
B          4.01175        0.82946       -0.44347
B         -1.70377        2.43662       -0.31825
B          3.95207        2.52237        0.00986
B         -0.28575        4.78344        0.39982
B         -3.14074        3.26802        0.29464
B         -3.16789        1.64528       -0.26803
B         -4.62341        0.83129        0.23889
B         -0.34569       -1.72317       -0.94385
B         -1.72350       -2.41906       -0.30814
B         -3.18114       -1.61564       -0.26124
B         -4.62999       -0.78774        0.24226
B         -4.46732       -2.34555        0.48975
B         -3.16717       -3.23619        0.30818
B         -1.74369       -4.09712        0.28719
B         -0.34981       -3.32651       -0.41111
B         -0.32459       -4.77431        0.41973
B          2.51524       -3.35606       -0.12018
B          1.10194       -4.17192        0.13231
B          2.53739       -1.71893       -0.50347
B          3.93146       -2.54940        0.02042
B          4.00488       -0.85894       -0.43996
B          1.10301       -2.53771       -0.65611
B          1.12360        2.53085       -0.66666
B         -3.25974        0.11434       -0.66098
B          1.08499       -0.81341       -0.80258
B         -4.44808        2.38874        0.47989
B          5.27595        1.71327        0.50789
B          5.26509        0.08165        0.27738
B          5.26189       -1.74903        0.51510
B          6.43455       -0.79774        1.10856
B          6.44086        0.75497        1.10532
B         -1.79032       -0.81509       -0.87139
B          1.53107        0.28066        2.30797
B         -0.33167        1.72692       -0.95103
B         -5.95829        1.68429        0.70430
B         -6.15993       -0.02800        0.77400
B         -5.96915       -1.75875        0.78205
B          1.69146       -0.40797       -0.41369
