45
isomer_3023.log	Energy: -113393.1070158
B          2.61153       -1.63712        0.40742
B          2.52818       -3.28199       -0.03481
B          1.16490       -4.11184       -0.16216
B         -0.27782       -3.34008        0.43715
B          1.14145       -0.76405        0.69662
B         -1.68459       -0.79312        0.94511
B         -1.63813       -4.11994       -0.23813
B          4.03198       -0.86724        0.31153
B         -1.72894       -2.51073        0.54694
B          3.91488       -2.42771       -0.29420
B         -0.24652       -4.72785       -0.35848
B         -3.01225       -3.22211       -0.25587
B         -3.14491       -1.71074        0.32449
B         -4.49527       -0.78922       -0.19424
B         -0.28403        1.75917        1.01140
B         -1.67313        2.53175        0.40175
B         -3.10397        1.73416        0.18476
B         -4.54403        0.86436       -0.12817
B         -4.33125        2.47378       -0.76467
B         -2.96457        3.26689       -0.36600
B         -1.55414        4.11452       -0.36369
B         -0.23115        3.36099        0.45904
B         -0.14755        4.70013       -0.40729
B          2.58007        3.23984        0.07013
B          1.23656        4.10070       -0.09695
B          2.64584        1.61609        0.59817
B          3.95058        2.36421       -0.17116
B          4.05494        0.79480        0.37704
B          1.27312        2.52529        0.66796
B          1.23133       -2.51431        0.55693
B         -3.25743        0.02928        0.58422
B          1.14527        0.80126        0.98212
B         -4.38938       -2.43399       -0.66446
B          5.17084       -1.69608       -0.82528
B          5.25600       -0.03292       -0.46816
B          5.21438        1.65046       -0.71463
B          6.31599        0.72271       -1.40359
B          6.29304       -0.76413       -1.45062
B         -1.67909        0.80226        0.68439
B         -0.23309        0.01721        1.74062
B         -0.27765       -1.73955        0.99580
B         -5.50343       -1.54405       -1.16650
B         -5.66089        0.01400       -1.19968
B         -5.43347        1.55951       -1.25187
B         -0.26421       -0.01460       -0.00296
