45
isomer_3024.log	Energy: -113420.5550374
B         -2.50780        1.74959        0.26503
B         -2.38067        3.35676       -0.29946
B         -0.93853        4.14369       -0.34153
B          0.41340        3.28788        0.23364
B         -1.19456        0.79763        0.69512
B          1.68208        0.68661        1.09762
B          1.88897        4.07908       -0.12519
B         -3.88013        0.97755       -0.02281
B          1.84772        2.43888        0.57783
B         -3.80312        2.59290       -0.38806
B          0.50063        4.73167       -0.39644
B          3.21781        3.18373        0.03138
B          3.19448        1.54782        0.52801
B          4.54286        0.67618        0.03512
B          0.22486       -1.76649        0.92118
B          1.52865       -2.59525        0.16585
B          2.93336       -1.73481       -0.07605
B          4.44874       -1.01668       -0.06509
B          4.20307       -2.53778       -0.89351
B          2.82173       -3.37326       -0.50751
B          1.44754       -4.18235       -0.40687
B          0.12460       -3.42901        0.57220
B         -0.01249       -4.69324       -0.42926
B         -2.70332       -3.20329        0.06978
B         -1.35359       -4.10540       -0.04138
B         -2.67245       -1.59945        0.71784
B         -3.96149       -2.28654       -0.10670
B         -3.97018       -0.69644        0.25966
B         -1.30823       -2.52655        0.65533
B         -1.10916        2.55497        0.36774
B          3.14885       -0.12138        0.59937
B         -1.21589       -0.78794        1.00006
B          4.57161        2.38080       -0.32935
B         -5.18497        1.80704       -0.76014
B         -5.31705        0.20435       -0.10864
B         -5.35617       -1.45166       -0.44671
B         -6.44811       -0.59304       -1.03746
B         -6.30682        0.88637       -1.24463
B          1.48304       -0.82127        0.13398
B          0.27555       -0.11480        1.61167
B          0.32801        1.68132        0.75607
B          5.61858        1.44818       -0.87951
B          5.67025       -0.09345       -1.02631
B          5.33660       -1.61658       -1.25110
B          0.17177        0.13364       -0.11074
