45
isomer_3025.log	Energy: -113429.7063820
B          2.63526       -1.67935        1.03771
B          2.39195       -3.18154        0.18368
B          1.09676       -3.97953       -0.08017
B         -0.41458       -3.39752        0.40524
B          0.27890       -0.60234        0.97020
B         -1.73829       -0.80466        0.70860
B         -1.72682       -4.09063       -0.52424
B          4.06388       -0.85225        0.35924
B         -1.85322       -2.49584        0.08563
B          3.74609       -2.42016       -0.06836
B         -0.26026       -4.64151       -0.53132
B         -3.14607       -3.25031       -0.53482
B         -3.24541       -1.70118        0.08548
B         -4.58406       -0.73882       -0.20563
B         -0.27252        1.60904        0.87391
B         -1.72089        2.44447        0.45862
B         -3.19509        1.69449        0.33485
B         -4.69646        0.88382        0.15623
B         -4.43179        2.54739       -0.46824
B         -3.09801        3.30358       -0.09078
B         -1.69539        4.09328       -0.23286
B         -0.28672        3.28132        0.40450
B         -0.29260        4.63800       -0.45159
B          2.51438        3.25050       -0.17410
B          1.12272        4.02838       -0.26768
B          2.63109        1.67506        0.33704
B          3.90972        2.46780       -0.41871
B          4.17908        0.93584        0.33662
B          1.19340        2.46712        0.54916
B          1.05847       -2.33264        0.77203
B         -3.29193       -0.01667        0.65551
B          1.22028        0.79301        1.04990
B         -4.52236       -2.35270       -0.85274
B          4.90654       -1.69493       -0.90146
B          5.17295       -0.03971       -0.61788
B          5.15324        1.65262       -0.95997
B          6.05243        0.66017       -1.77913
B          5.88522       -0.83757       -1.80483
B         -1.72115        0.79746        0.64876
B          2.90401        0.14287        1.12217
B         -0.57243       -1.86421        0.89812
B         -5.65813       -1.42687       -1.19404
B         -5.80341        0.11884       -1.08554
B         -5.51632        1.62563       -1.01518
B          1.62755       -0.70978        1.82607
