45
isomer_3026.log	Energy: -113411.7498001
B          2.55005       -1.27834        0.40703
B          2.73421       -3.16200        0.12471
B          1.45009       -4.01952        0.04397
B         -0.04519       -3.18298        0.10175
B          1.23060       -0.49760       -0.22452
B         -1.67186       -0.79182        0.58845
B         -1.36651       -4.12636       -0.34615
B          4.05745       -0.69661        0.25180
B         -1.54005       -2.41026       -0.04165
B          3.99907       -2.28310        0.04853
B          0.04068       -4.72383       -0.18796
B         -2.82888       -3.33144       -0.48285
B         -3.03360       -1.78921        0.08346
B         -4.58107       -1.06630        0.07472
B         -0.39583        1.76761        1.05184
B         -1.87816        2.43567        0.59129
B         -3.27851        1.60951        0.44145
B         -4.55435        0.60994       -0.15682
B         -4.59683        2.29001       -0.47600
B         -3.23877        3.14333       -0.10869
B         -1.89491        4.05356       -0.19929
B         -0.45929        3.31465        0.46675
B         -0.53639        4.63722       -0.45966
B          2.28000        3.26387       -0.36149
B          0.89844        4.05877       -0.35392
B          2.42470        1.61889        0.24237
B          3.67565        2.50514       -0.49927
B          3.93092        1.03672        0.10130
B          1.06058        2.57376        0.51055
B          1.36126       -2.41729        0.76493
B         -3.28308       -0.14076        0.65468
B          1.11290        0.81829        0.75733
B         -4.27504       -2.60335       -0.74666
B          5.37056       -1.45106       -0.39563
B          5.35317        0.23948       -0.12568
B          5.15285        1.79955       -0.78693
B          6.35586        0.92649       -1.23286
B          6.45423       -0.54366       -1.06514
B         -1.83236        0.74531        1.06725
B          1.09218       -0.91638        1.48958
B         -0.09973       -1.46145        0.17867
B         -5.40766       -1.69083       -1.15527
B         -5.79139       -0.19509       -1.01583
B         -5.72566        1.35734       -0.92046
B         -0.27033       -0.02590        1.30034
