45
isomer_3029.log	Energy: -112539.6845170
B         -2.57276        1.77280        0.40787
B         -2.54759        3.41202        0.03381
B         -1.13230        4.22956       -0.20154
B          0.31475        3.38146        0.35019
B         -1.12286        0.86595        0.71496
B          1.75172        0.86784        0.80950
B          1.71462        4.15619       -0.33136
B         -4.03941        0.91287        0.32650
B          1.68954        2.47487        0.25451
B         -3.96229        2.60587       -0.12389
B          0.29659        4.83381       -0.47285
B          3.13845        3.29568       -0.34436
B          3.14774        1.67202        0.21623
B          4.60124        0.84720       -0.27883
B          0.29306       -1.67487        0.86209
B          1.67094       -2.38080        0.23771
B          3.13525       -1.58889        0.20494
B          4.59504       -0.77182       -0.28444
B          4.42227       -2.32796       -0.53557
B          3.11355       -3.20852       -0.36687
B          1.68317       -4.05816       -0.35979
B          0.28925       -3.27748        0.32715
B          0.25999       -4.72391       -0.50593
B         -2.57323       -3.28393        0.01064
B         -1.16423       -4.11063       -0.23040
B         -2.58585       -1.64719        0.39603
B         -3.98171       -2.46589       -0.14144
B         -4.04587       -0.77552        0.32065
B         -1.15941       -2.47752        0.56029
B         -1.14000        2.59102        0.57783
B          3.22397        0.13987        0.60782
B         -1.12906       -0.75362        0.70936
B          4.44039        2.40632       -0.51919
B         -5.28804        1.80795       -0.63485
B         -5.29215        0.17599       -0.40657
B         -5.30130       -1.65434       -0.64683
B         -6.46106       -0.69299       -1.24937
B         -6.45512        0.85971       -1.24400
B          1.74542       -0.77817        0.80380
B         -0.95491       -1.47745       -0.56345
B          0.30627        1.77521        0.87403
B          5.94693        1.69023       -0.73112
B          6.13563       -0.02352       -0.80144
B          5.93124       -1.75269       -0.81364
B         -0.93785       -0.86858        2.18178
