45
isomer_0303.log	Energy: -111194.7288323
B          2.55613        1.78585       -0.44647
B          2.53293        3.42563       -0.07475
B          1.11880        4.24409        0.16428
B         -0.33050        3.39580       -0.38120
B          1.10481        0.87915       -0.74723
B         -1.77008        0.88209       -0.83186
B         -1.72769        4.17211        0.30403
B          4.02270        0.92543       -0.36889
B         -1.70532        2.48991       -0.27945
B          3.94783        2.61911        0.07927
B         -0.30890        4.84934        0.43963
B         -3.15182        3.31221        0.32321
B         -3.16371        1.68773       -0.23496
B         -4.61584        0.86425        0.26633
B         -0.31266       -1.66129       -0.88573
B         -1.68867       -2.36573       -0.25557
B         -3.15253       -1.57316       -0.21892
B         -4.61029       -0.75476        0.27429
B         -4.43729       -2.31060        0.52712
B         -3.12952       -3.19196        0.35520
B         -1.69952       -4.04221        0.34444
B         -0.30767       -3.26312       -0.34845
B         -0.27613       -4.70833        0.48665
B          2.55589       -3.27030       -0.04181
B          1.14739       -4.09605        0.20531
B          2.56786       -1.63413       -0.42965
B          3.96522       -2.45262        0.10422
B          4.02848       -0.76296       -0.36059
B          1.14051       -2.46410       -0.58777
B          1.12313        2.60442       -0.61270
B         -3.24192        0.15504       -0.62403
B          1.11036       -0.74041       -0.73926
B         -4.45352        2.42365        0.50383
B          5.27501        1.82140        0.58682
B          5.27765        0.18910        0.36093
B          5.28688       -1.64087        0.60386
B          6.44911       -0.67913        1.20098
B          6.44379        0.87357        1.19334
B         -1.76444       -0.76390       -0.82376
B          2.21987       -0.53037        0.19819
B         -0.32449        1.78877       -0.90271
B         -5.95961        1.70850        0.72201
B         -6.14877       -0.00506        0.79551
B         -5.94506       -1.73430        0.80955
B          0.35160       -2.45180       -0.65324
