45
isomer_3031.log	Energy: -110466.3781097
B          2.51958        1.89127       -0.44925
B          2.46567        3.52478       -0.05386
B          1.03665        4.31203        0.20097
B         -0.39759        3.44357       -0.35254
B          1.08522        0.96088       -0.75891
B         -1.78944        0.90903       -0.83528
B         -1.80745        4.18260        0.34780
B          4.00282        1.05856       -0.38827
B         -1.75421        2.50971       -0.25994
B          3.89646        2.74386        0.08447
B         -0.40167        4.88533        0.48910
B         -3.21453        3.29493        0.35864
B         -3.19659        1.67871       -0.22285
B         -4.63086        0.81998        0.27065
B         -0.28303       -1.60444       -0.92997
B         -1.64310       -2.34453       -0.30610
B         -3.12197       -1.58124       -0.25385
B         -4.59381       -0.79856        0.25526
B         -4.38981       -2.35421        0.48514
B         -3.06570       -3.20735        0.29680
B         -1.61948       -4.02935        0.26970
B         -0.24522       -3.21341       -0.41585
B         -0.18297       -4.66958        0.39823
B          2.61889       -3.16921       -0.11752
B          1.22749       -4.02571        0.12168
B          2.59783       -1.52772       -0.48177
B          4.01251       -2.32641        0.03625
B          4.04146       -0.62934       -0.40432
B          1.18640       -2.38299       -0.64776
B          1.07042        2.68407       -0.59957
B         -3.24621        0.15054       -0.63376
B          1.12227       -0.65821       -0.77431
B         -4.49814        2.37868        0.53015
B          5.24047        1.96494        0.57669
B          5.27414        0.33642        0.32727
B          5.31970       -1.49633        0.54377
B          6.46488       -0.52080        1.15137
B          6.42935        1.03145        1.16614
B         -1.75178       -0.73649       -0.85092
B          1.73318       -2.90609        1.49313
B         -0.36197        1.84462       -0.89717
B         -5.98935        1.63127        0.74229
B         -6.14493       -0.08653        0.79162
B         -5.90760       -1.81150        0.78015
B          0.89204       -2.15721       -1.08349
