45
isomer_3033.log	Energy: -113341.9708067
B         -2.68646        1.59614        0.67964
B         -2.77115        3.28944        0.10181
B         -1.46461        4.13988       -0.02680
B          0.01389        3.45201        0.51768
B         -1.32650        0.84720        1.14793
B          1.59182        1.02332        0.77559
B          1.34850        4.29103       -0.28149
B         -3.94044        0.76963        0.12861
B          1.50583        2.67748        0.40089
B         -3.98839        2.39173       -0.12113
B         -0.10783        4.79794       -0.33086
B          2.75336        3.54685       -0.33111
B          2.95611        1.94623        0.16995
B          4.39229        1.12682       -0.16013
B          0.39482       -1.54310        1.55688
B          1.72143       -2.52124        0.64368
B          2.96516       -1.49281        0.19004
B          4.28977       -0.53856       -0.41493
B          4.23663       -2.16627       -0.87990
B          3.00002       -3.06366       -0.29758
B          1.80418       -4.05656       -0.35905
B          0.45533       -3.94647        0.73558
B          0.50121       -4.73688       -0.67338
B         -2.09299       -3.20838       -0.36815
B         -0.83307       -4.10581       -0.40323
B         -2.28668       -1.71003        0.36778
B         -3.44598       -2.40798       -0.65206
B         -3.63933       -0.86969       -0.15392
B         -0.94273       -2.63684        0.72194
B         -1.38980        2.53425        0.84374
B          3.16556        0.22348        0.57682
B         -1.15355       -0.81131        1.07775
B          4.08538        2.74970       -0.81668
B         -5.27487        1.46639       -0.65880
B         -5.15114       -0.20468       -0.38265
B         -4.82538       -1.73585       -1.08535
B         -5.98642       -0.89138       -1.63616
B         -6.23620        0.55443       -1.39955
B          1.74092       -0.66219        0.98492
B          0.41813       -2.98439        1.85972
B          0.16029        1.88637        1.09995
B          5.12422        1.82005       -1.41595
B          5.41252        0.31249       -1.42721
B          5.28557       -1.24946       -1.44160
B          0.22057        0.10067        1.13679
