45
isomer_3035.log	Energy: -113441.9684222
B         -2.45059        1.82356        0.46653
B         -2.37290        3.45174       -0.11266
B         -0.97838        4.21772       -0.27911
B          0.44145        3.42733        0.33964
B         -1.14799        0.95899        1.03450
B          1.77471        0.86106        0.72365
B          1.83484        4.13223       -0.41959
B         -3.72914        1.01879       -0.01633
B          1.84839        2.55131        0.46154
B         -3.79688        2.69171       -0.16122
B          0.45592        4.75268       -0.56013
B          3.19437        3.24725       -0.34762
B          3.21457        1.67921        0.16680
B          4.64445        0.72755        0.04539
B          0.27743       -1.65390        1.30408
B          1.55271       -2.48833        0.56656
B          3.02501       -1.74421        0.31683
B          4.41082       -0.90723       -0.21602
B          4.26496       -2.56377       -0.59882
B          2.82927       -3.27260       -0.16974
B          1.38067       -3.98008       -0.24380
B         -0.07608       -3.24218        0.39369
B          0.05026       -4.50002       -0.66236
B         -2.66218       -3.19369       -0.79594
B         -1.38473       -4.10414       -0.81100
B         -2.47508       -1.74109        0.39446
B         -3.73930       -2.13559       -0.65069
B         -3.68437       -0.64456       -0.00662
B         -1.82014       -3.42127        0.59203
B         -1.08850        2.68669        0.57228
B          3.25517       -0.02821        0.65309
B         -1.28549       -0.63259        1.02429
B          4.49873        2.36277       -0.68878
B         -5.12752        1.93644       -0.51173
B         -5.17621        0.23885       -0.08057
B         -5.16498       -1.31548       -0.68165
B         -6.37040       -0.47146       -0.99965
B         -6.24497        1.01018       -1.06372
B          1.68406       -0.78898        1.00744
B         -1.17019       -2.28438        1.42005
B          0.39924        1.88171        0.97223
B          5.51953        1.32883       -1.14778
B          5.69482       -0.21231       -1.10803
B          5.44548       -1.75522       -1.08685
B          0.24914        0.09470        0.96534
