45
isomer_3036.log	Energy: -113675.8761128
B         -2.51376        1.75806        0.49298
B         -2.43398        3.33129       -0.04077
B         -1.05576        4.15643       -0.12353
B          0.34380        3.38655        0.51608
B         -1.13396        0.84928        1.04948
B          1.77876        0.83100        0.90133
B          1.73918        4.14561       -0.24914
B         -3.95785        0.90465        0.21509
B          1.79603        2.53405        0.48412
B         -3.81441        2.53275       -0.29186
B          0.33198        4.74603       -0.35353
B          3.08450        3.28417       -0.26843
B          3.16998        1.68411        0.25794
B          4.53340        0.80555       -0.23003
B          0.31683       -1.83164        1.09139
B          1.73109       -2.54927        0.43664
B          3.13342       -1.72922        0.22673
B          4.54579       -0.88623       -0.15299
B          4.33302       -2.49443       -0.76965
B          3.01477       -3.33435       -0.27784
B          1.65009       -4.16692       -0.25936
B          0.27511       -3.40169        0.53538
B          0.22995       -4.74783       -0.35531
B         -2.50617       -3.30496       -0.03852
B         -1.14721       -4.14920       -0.11269
B         -2.55842       -1.73266        0.52530
B         -3.86526       -2.48891       -0.27700
B         -3.98183       -0.85009        0.22472
B         -1.18059       -2.57849        0.78802
B         -1.12471        2.58953        0.76913
B          3.29403       -0.01354        0.60919
B         -1.16665       -0.84983        1.06835
B          4.40041        2.44809       -0.75230
B         -5.06340        1.73135       -0.86480
B         -5.19541        0.03716       -0.52313
B         -5.10200       -1.65928       -0.84575
B         -6.10269       -0.71641       -1.60648
B         -6.08399        0.80476       -1.61468
B          1.72217       -0.84299        0.80421
B         -2.60915        0.01367        0.74448
B          0.36400        1.82707        1.11518
B          5.46489        1.52294       -1.30627
B          5.61937       -0.02828       -1.30574
B          5.38207       -1.56629       -1.33616
B          0.34258       -0.00162        1.10023
