45
isomer_3038.log	Energy: -113221.8787449
B          2.66968       -1.56223        1.03745
B          2.74687       -3.17388       -0.00498
B          1.48121       -3.92852       -0.48644
B         -0.04443       -3.13622       -0.17817
B          1.16638       -0.53781        0.62466
B         -1.48814       -0.82498        0.81237
B         -1.36762       -4.02993       -0.67395
B          3.92626       -0.64277        0.43496
B         -1.47443       -2.39358        0.11077
B          3.96426       -2.25194        0.08445
B          0.06900       -4.57802       -0.81892
B         -2.79814       -3.23468       -0.52430
B         -2.98196       -1.77836        0.17896
B         -4.45169       -0.97246       -0.05602
B         -0.37929        1.81252        0.85514
B         -1.87237        2.51816        0.51106
B         -3.21977        1.62967        0.41895
B         -4.59256        0.66671        0.14766
B         -4.61910        2.32283       -0.34468
B         -3.26403        3.19253       -0.11043
B         -1.91653        4.10535       -0.30609
B         -0.47746        3.44618        0.31299
B         -0.54507        4.73660       -0.61067
B          2.31779        3.44070       -0.37056
B          0.91166        4.20483       -0.45758
B          2.43668        1.84313        0.30609
B          3.71134        2.63843       -0.39055
B          3.84713        1.10586        0.24570
B          1.01059        2.64515        0.28528
B          1.33406       -2.29081        0.22198
B         -3.14732       -0.10573        0.62859
B          1.00128        1.01198        0.68498
B         -4.27774       -2.56337       -0.64080
B          5.24157       -1.39416       -0.36855
B          5.16312        0.25895       -0.14732
B          5.11154        1.87118       -0.69995
B          6.22781        0.97964       -1.21130
B          6.27773       -0.49648       -1.09230
B         -1.71662        0.79206        0.82571
B          1.34113       -1.66649        1.90155
B         -0.15204       -1.70504        1.49002
B         -5.55169       -1.74295       -0.90018
B         -5.81236       -0.22913       -0.78836
B         -5.70798        1.34703       -0.74686
B         -0.09877       -1.32998       -0.19034
