45
isomer_0304.log	Energy: -113495.9788612
B          2.46032       -1.58582        0.80702
B          2.37054       -2.90261       -0.30596
B          1.04770       -3.50726       -0.80310
B         -0.31203       -3.28792        0.28354
B         -0.12350       -0.28473        0.29606
B         -1.71198       -0.89804        0.70591
B         -1.78727       -3.19079       -0.96956
B          3.93741       -0.77777        0.65513
B         -1.86372       -2.61656        0.70405
B          3.74221       -2.31949        0.08999
B         -0.36565       -3.34444       -1.43280
B         -3.25133       -3.03532       -0.27627
B         -3.30613       -1.60855        0.56019
B         -4.69076       -0.63866        0.42658
B         -0.08906        1.48564        0.52702
B         -1.50250        2.38579        0.09864
B         -2.98493        1.73428        0.14472
B         -4.51316        1.01334        0.15044
B         -4.29580        2.61828       -0.51084
B         -2.80942        3.33720       -0.34198
B         -1.37858        4.01506       -0.49776
B          0.01064        3.13190        0.00407
B          0.10887        4.54691       -0.61942
B          2.82402        3.03231       -0.04211
B          1.48694        3.82829       -0.31716
B          2.78748        1.32170        0.49006
B          4.19485        2.28424       -0.00363
B          4.29966        0.77943        0.70740
B          1.45815        2.22992        0.46719
B          0.89839       -1.97322       -0.01946
B         -3.19938        0.10279        0.77731
B          1.35914        0.54805        0.87213
B         -4.62164       -2.27065       -0.29798
B          5.13714       -1.83194       -0.44366
B          5.16241       -0.17855       -0.29672
B          5.50512        1.49016       -0.36722
B          6.50584        0.44401       -0.96650
B          6.28309       -1.04977       -1.08417
B         -1.59802        0.80075        0.66693
B          1.07980       -1.01543        1.45740
B         -0.36456       -1.89553        1.32493
B         -5.72882       -1.24996       -0.64937
B         -5.86221        0.25062       -0.60847
B         -5.54337        1.80837       -0.74984
B         -0.75589       -1.72605       -0.61274
