45
isomer_3040.log	Energy: -113525.5137528
B         -3.05984       -1.47160       -1.49968
B         -3.22026       -3.04826       -0.76573
B         -1.97741       -3.47873        0.14834
B         -0.33952       -3.24334       -0.66053
B         -1.67154       -0.50425       -0.92719
B          1.41047       -0.90990       -0.74284
B          0.80801       -4.10314        0.35968
B         -3.35485       -0.30525       -0.32923
B          1.17037       -2.58350       -0.31900
B         -4.30900       -1.89388       -0.47320
B         -0.66805       -4.21182        0.59897
B          2.35070       -3.54849        0.34937
B          2.70117       -2.02666       -0.16789
B          4.27586       -1.40966        0.01918
B          0.49778        1.80785       -1.13469
B          2.04058        2.35418       -0.56771
B          3.25504        1.33883       -0.21644
B          4.45846        0.23324        0.29764
B          4.65317        1.91109        0.66712
B          3.44703        2.90756        0.20861
B          2.22020        3.97543        0.14329
B          0.74613        3.39990       -0.56509
B          0.93791        4.76368        0.26517
B         -2.01794        3.76287       -0.01247
B         -0.55670        4.37512        0.04934
B         -2.31059        2.18485       -0.66455
B         -3.36701        2.97316        0.36874
B         -3.59089        1.42597       -0.07316
B         -0.82612        2.83525       -0.70393
B         -1.63983       -2.27574       -1.15305
B          3.10474       -0.36742       -0.57595
B         -1.17456        1.11265       -1.13948
B          3.80722       -2.92989        0.76369
B         -4.32169       -1.34295        1.01531
B         -4.34635        0.38945        0.90886
B         -4.40859        2.04524        1.25942
B         -5.04435        0.98865        2.23027
B         -4.94547       -0.48791        2.16667
B          1.77185        0.69027       -0.92721
B         -2.67073       -1.79040        0.36858
B         -0.09463       -1.62275       -1.09456
B          5.00195       -2.14618        1.25850
B          5.54950       -0.69674        1.20091
B          5.64479        0.85344        1.15838
B          0.06301        0.06977       -1.09247
