45
isomer_3044.log	Energy: -113230.9285390
B         -2.40090        1.80215        0.32164
B         -2.28886        3.39203       -0.36095
B         -0.89273        4.16643       -0.45407
B          0.48824        3.47805        0.38393
B         -0.95393        1.03182        0.76501
B          1.70331        0.81927        0.85731
B          1.91719        4.07828       -0.34219
B         -3.82965        1.07689        0.21307
B          1.89242        2.54077        0.54778
B         -3.67148        2.59710       -0.39838
B          0.54690        4.69473       -0.63790
B          3.26774        3.18364       -0.15890
B          3.21115        1.62379        0.34467
B          4.59704        0.65578        0.12093
B          0.16715       -1.76303        1.45647
B          1.46303       -2.37317        0.21685
B          2.99024       -1.79406        0.24888
B          4.42119       -0.96921       -0.06652
B          4.26288       -2.58657       -0.59230
B          2.78534       -3.26706       -0.40000
B          1.36491       -4.05171       -0.57375
B          0.04470       -3.08734       -0.16047
B         -0.06467       -4.55595       -0.78667
B         -2.72790       -3.12299       -0.07350
B         -1.46964       -3.89139       -0.56609
B         -2.67139       -1.56870        1.00474
B         -3.96237       -2.21598        0.01554
B         -3.95302       -0.64097        0.44583
B         -1.32698       -2.19180        0.04083
B         -1.00253        2.66347        0.39867
B          3.13782       -0.07721        0.63266
B         -1.15738       -0.52077        0.62199
B          4.61150        2.30683       -0.42596
B         -5.08782        1.85489       -0.70681
B         -5.20951        0.26857       -0.10211
B         -5.27743       -1.37957       -0.37532
B         -6.32708       -0.48495       -1.07162
B         -6.23605        0.98757       -1.20303
B          1.46953       -0.78404        0.85177
B         -1.33965       -1.77913        1.81354
B          0.39947        1.86658        0.97751
B          5.68079        1.32039       -0.83793
B          5.79451       -0.25423       -0.85270
B          5.51776       -1.76511       -0.92088
B          0.11615       -1.28407       -0.21155
