45
isomer_3045.log	Energy: -112797.4610802
B         -2.60688       -1.73360       -0.42502
B         -2.57689       -3.37533       -0.02862
B         -1.20393       -4.19574        0.20226
B          0.24716       -3.37608       -0.36415
B         -1.17877       -0.87577       -0.76290
B          1.72298       -0.81158       -0.85285
B          1.63682       -4.13457        0.33145
B         -4.03225       -0.84562       -0.33515
B          1.64051       -2.46685       -0.27471
B         -3.95303       -2.51930        0.12575
B          0.23153       -4.76206        0.46383
B          3.06062       -3.27330        0.34129
B          3.10841       -1.65000       -0.22911
B          4.55194       -0.80730        0.26895
B          0.28775        1.81038       -0.88018
B          1.67822        2.46687       -0.25682
B          3.12227        1.64910       -0.21740
B          4.54458        0.81012        0.26785
B          4.42473        2.38305        0.55072
B          3.08638        3.26154        0.35786
B          1.67849        4.12211        0.35929
B          0.27807        3.38460       -0.33126
B          0.27247        4.76244        0.49399
B         -2.56071        3.37966        0.00002
B         -1.16474        4.20634        0.22852
B         -2.63349        1.75551       -0.41029
B         -3.98552        2.52067        0.15599
B         -4.04395        0.88303       -0.32036
B         -1.18456        2.61805       -0.57441
B         -1.20814       -2.58980       -0.58725
B          3.20900       -0.07683       -0.62470
B         -1.08216        0.98514       -0.54059
B          4.41382       -2.40348        0.53378
B         -5.23837       -1.71877        0.63816
B         -5.24474       -0.07137        0.41041
B         -5.24882        1.70951        0.65862
B         -6.35328        0.74876        1.25960
B         -6.37484       -0.75079        1.26339
B          1.73291        0.86053       -0.83105
B         -1.42662        0.66228       -1.62400
B          0.23146       -1.78800       -0.93164
B          5.81780       -1.60022        0.72468
B          5.99699        0.03583        0.78341
B          5.80922        1.67025        0.79019
B          0.51760       -0.85943        0.19246
