45
isomer_3046.log	Energy: -113557.2210953
B          2.93077        0.70563       -0.21282
B          3.00819        2.57050        0.02959
B          1.73317        3.46175        0.17597
B          0.17730        2.74809        0.20987
B          1.28588        0.31766       -1.03161
B         -1.64192        0.73357       -0.88522
B         -1.06955        3.89190        0.35050
B          4.58522        0.64603       -0.98349
B         -1.36908        2.29518       -0.22141
B          4.40443        1.97645       -0.15159
B          0.39551        4.30677        0.33772
B         -2.61261        3.24327        0.34033
B         -2.95176        1.72151       -0.18319
B         -4.53425        0.93286        0.15038
B         -0.49866       -1.90271       -1.45081
B         -1.89749       -2.52905       -0.68785
B         -3.27353       -1.51403       -0.63130
B         -4.69316       -0.55056       -0.68625
B         -4.55255       -1.91657        0.38847
B         -3.27851       -2.83636        0.30568
B         -1.77555       -3.28950        0.82518
B         -0.39474       -3.37800       -0.42082
B         -0.44539       -3.55851        1.39065
B          1.76053       -1.81674        0.83900
B          0.96100       -3.11886        1.03657
B          2.28917       -1.19869       -0.79962
B          2.89202       -0.69235        0.84572
B          3.85161       -0.78939       -0.70783
B          1.02187       -2.46034       -0.60449
B          1.59364        1.86971       -0.38758
B         -3.29787        0.21545       -0.94349
B          0.86672       -1.07687       -1.70754
B         -4.05729        2.64790        0.65901
B          5.70434        1.15412        0.22270
B          5.46344       -0.53703       -0.15187
B          4.37805       -1.21906        1.02205
B          5.86249       -1.20998        1.34218
B          6.50285        0.04243        0.97066
B         -1.81295       -0.82194       -1.22098
B         -0.30696       -1.91169        0.64987
B         -0.04180        1.22205       -0.50607
B         -5.37634        2.04447        1.06710
B         -5.98120        0.71679        1.03666
B         -5.52023       -0.66758        0.68483
B         -0.28482       -0.46828       -0.30489
