45
isomer_3048.log	Energy: -113379.8916451
B          2.72915       -1.60006        0.68709
B          2.53925       -3.14214       -0.11557
B          1.33226       -4.05430       -0.67988
B         -0.11556       -3.23167        0.57131
B          2.23129        0.05269        0.62216
B         -1.72576       -0.78940        0.86115
B         -1.48553       -4.05847       -0.12800
B          3.79338       -0.67454        0.07610
B         -1.66334       -2.49261        0.66701
B          3.89995       -2.29399       -0.32275
B         -0.06059       -4.57298       -0.36599
B         -2.86921       -3.30545       -0.17095
B         -3.05828       -1.72927        0.27592
B         -4.50924       -0.93527       -0.13088
B         -0.46880        1.79225        1.11289
B         -1.85274        2.52685        0.47332
B         -3.22193        1.68216        0.18341
B         -4.49956        0.71471       -0.38316
B         -4.42210        2.36729       -0.86569
B         -3.16851        3.21431       -0.32224
B         -1.84119        4.14097       -0.19086
B         -0.47291        3.44339        0.58862
B         -0.49218        4.82961       -0.19565
B          2.31684        3.48262        0.13664
B          0.93055        4.26465        0.08867
B          2.37335        1.79304        0.60209
B          3.64866        2.66508       -0.22502
B          3.65681        1.00151        0.13808
B          1.06347        2.73643        0.86783
B          1.28224       -2.24052        0.89526
B         -3.24485        0.00193        0.54996
B          1.01115        1.02259        1.16539
B         -4.22230       -2.54263       -0.67968
B          5.03127       -1.41996       -0.98909
B          4.92949        0.27496       -0.65616
B          4.86747        1.96461       -0.87824
B          5.92283        1.10585       -1.62261
B          5.99937       -0.40180       -1.66101
B         -1.80849        0.86784        0.93915
B          1.36983       -3.89889        0.85393
B         -0.33602       -1.54963        1.07713
B         -5.28461       -1.66184       -1.30720
B         -5.58744       -0.14256       -1.37282
B         -5.46914        1.39226       -1.41004
B          0.95163       -0.59962        1.24037
