45
isomer_3049.log	Energy: -109885.7540994
B         -2.52796        1.73468        0.34907
B         -2.50481        3.37284       -0.02976
B         -1.09007        4.19516       -0.25128
B          0.35378        3.35442        0.31977
B         -1.07822        0.83444        0.67573
B          1.79505        0.84784        0.80348
B          1.75842        4.13251       -0.34796
B         -3.99023        0.86879        0.25343
B          1.73307        2.45291        0.24282
B         -3.91446        2.56068       -0.20130
B          0.33952        4.80415       -0.50794
B          3.18564        3.27754       -0.34182
B          3.19472        1.65565        0.22389
B          4.65703        0.83500       -0.25177
B          0.34573       -1.70037        0.84711
B          1.73347       -2.40282        0.24090
B          3.19498       -1.60530        0.22260
B          4.65716       -0.78404       -0.25241
B          4.49333       -2.34160       -0.50069
B          3.18616       -3.22675       -0.34439
B          1.75909       -4.08195       -0.35120
B          0.35431       -3.30461        0.31715
B          0.34029       -4.75369       -0.51171
B         -2.50427       -3.32321       -0.03241
B         -1.08939       -4.14513       -0.25457
B         -2.52769       -1.68536        0.34772
B         -3.91405       -2.51115       -0.20331
B         -3.99010       -0.81963        0.25276
B         -1.10004       -2.50960        0.53104
B         -1.10045        2.55901        0.53305
B          3.27234        0.12502        0.62110
B         -1.07809       -0.78515        0.67509
B          4.49295        2.39273       -0.49882
B         -5.23111        1.75603       -0.72507
B         -5.23154        0.12477       -0.49177
B         -5.23083       -1.70630       -0.72644
B         -6.38726       -0.75135       -1.34533
B         -6.38738        0.80138       -1.34472
B          1.79519       -0.79818        0.80283
B         -3.05572        0.09300        2.18303
B          0.34545        1.74976        0.84848
B          6.00459        1.68189       -0.69109
B          6.20072       -0.03131       -0.75390
B          6.00318       -1.76130       -0.76308
B         -1.26248       -1.18142        0.43166
