45
isomer_0305.log	Energy: -113523.3979728
B         -2.43899       -1.83209       -0.64229
B         -2.20436       -3.06458        0.49771
B         -0.83308       -3.77928        0.64934
B          0.33515       -3.36080       -0.62914
B         -1.04503       -0.84205       -0.80341
B          1.78807       -0.76410       -0.73987
B          1.97264       -4.06051        0.18343
B         -3.93866       -0.95416       -0.31616
B          1.81268       -2.48584       -0.36997
B         -3.68699       -2.40068        0.45137
B          0.61203       -4.32673        0.70318
B          3.26836       -3.19861        0.08631
B          3.23172       -1.59065       -0.34259
B          4.62177       -0.64834        0.00086
B          0.28641        1.66298       -0.74543
B          1.65671        2.49646       -0.23603
B          3.15072        1.80409       -0.18640
B          4.64094        1.01775       -0.18495
B          4.40402        2.64883        0.57203
B          3.00971        3.38055        0.31886
B          1.56726        4.14203        0.43465
B          0.21949        3.34719       -0.25229
B          0.13262        4.69538        0.56312
B         -2.64179        3.28067       -0.06229
B         -1.25707        4.08698        0.20044
B         -2.63258        1.67982       -0.60699
B         -4.01043        2.46264        0.00769
B         -4.03935        0.79334       -0.48169
B         -1.22250        2.49586       -0.54432
B         -1.13538       -2.76349       -1.12369
B          3.26004        0.13759       -0.66692
B         -1.14109        0.81688       -0.88181
B          4.60019       -2.28681        0.46807
B         -5.05494       -1.70217        0.75525
B         -5.33103       -0.08445        0.17074
B         -5.29336        1.62812        0.43118
B         -6.32932        0.70726        1.15603
B         -6.20634       -0.77557        1.33028
B          1.66425        0.84154       -0.57198
B         -0.72579       -2.08152        0.42997
B          0.39267       -1.62810       -0.87428
B          5.73515       -1.37038        0.86956
B          5.85451        0.20709        0.86423
B          5.54115        1.70005        0.96579
B         -2.59020       -0.03221       -0.84759
