45
isomer_3051.log	Energy: -113675.8833379
B         -2.56461        1.72955        0.53125
B         -2.51629        3.30346       -0.03679
B         -1.16010        4.14898       -0.10825
B          0.26696        3.40350        0.54004
B         -1.17098        0.85118        1.06745
B          1.71594        0.84349        0.78120
B          1.63925        4.17094       -0.25773
B         -3.98514        0.84387        0.22516
B          1.72216        2.55206        0.42869
B         -3.87123        2.48357       -0.27569
B          0.21637        4.74797       -0.35259
B          3.00661        3.34295       -0.27827
B          3.12739        1.73480        0.21918
B          4.54737        0.89698       -0.14175
B          0.37120       -1.82447        1.11752
B          1.80423       -2.53200        0.48941
B          3.17518       -1.67931        0.26215
B          4.53126       -0.79479       -0.24120
B          4.40940       -2.44324       -0.74794
B          3.09489       -3.27939       -0.26495
B          1.75135       -4.14376       -0.24536
B          0.35350       -3.38386        0.51300
B          0.34509       -4.74566       -0.35182
B         -2.42540       -3.33633       -0.03929
B         -1.04475       -4.15733       -0.12325
B         -2.50747       -1.76030        0.48660
B         -3.80837       -2.53887       -0.29240
B         -3.95595       -0.91258        0.21623
B         -1.11740       -2.59039        0.76363
B         -1.18786        2.57744        0.78846
B          3.29353        0.01682        0.60982
B         -1.12838       -0.84868        1.03836
B          4.32402        2.50162       -0.77034
B         -5.10569        1.64910       -0.84444
B         -5.19604       -0.04694       -0.52183
B         -5.06021       -1.74130       -0.86377
B         -6.08469       -0.81707       -1.61174
B         -6.10569        0.70335       -1.60481
B          1.78983       -0.83039        0.91595
B         -2.60960       -0.01686        0.74613
B          0.31138        1.83030        1.08572
B          5.36977        1.57068       -1.33836
B          5.62004        0.03521       -1.30428
B          5.47608       -1.51698       -1.29995
B          0.34308        0.00268        1.09082
