45
isomer_3052.log	Energy: -113439.7884185
B          1.90666        1.66481       -0.30245
B          1.26965        3.15044        0.75492
B         -0.17770        3.73880        0.60294
B         -1.33505        2.97914       -0.38212
B          0.69714        1.01495       -1.28969
B         -2.04348        0.35308       -1.11301
B         -2.91050        3.47054        0.03289
B          3.50515        1.76900       -0.08831
B         -2.53572        1.94809       -0.91849
B          2.68100        2.64477        0.96923
B         -1.70864        4.17208        0.59018
B         -4.08231        2.39508       -0.28967
B         -3.73892        0.82186       -0.67639
B         -4.78055       -0.48661       -0.26135
B          0.09504       -1.32909       -1.46351
B         -0.65944       -2.07586        0.01571
B         -2.30339       -2.02985        0.09589
B         -3.90481       -1.69731        0.54005
B         -3.01884       -2.82959        1.49100
B         -1.40333       -2.96873        1.21478
B          0.18558       -3.00523        1.15623
B          0.99394       -2.20770       -0.23512
B          1.75880       -3.00084        1.04240
B          3.12346       -2.50713       -1.53938
B          2.80825       -2.96254        0.01279
B          2.85775       -0.67539       -1.65907
B          4.08236       -1.69135       -0.64960
B          3.65688        0.16721       -0.49257
B          1.64907       -1.89144       -1.83613
B          0.32067        2.41232       -0.34251
B         -3.24228       -0.87514       -0.81689
B          1.30555       -0.20907       -2.21090
B         -5.10813        1.28960        0.15834
B          4.12671        2.12587        1.52551
B          4.77330        0.86920        0.51811
B          4.72262       -0.81808        0.51614
B          5.26185       -0.02981        1.79287
B          5.21325        1.37153        2.17181
B         -1.54418       -1.18734       -1.17067
B          2.58868       -1.32794        0.13955
B         -0.92990        1.48739       -1.12492
B         -5.72368        0.09682        0.91392
B         -5.36412       -1.31038        1.29882
B         -4.46340       -2.52717        1.77827
B          1.39497       -0.29898       -0.46958
