45
isomer_3053.log	Energy: -113673.2924668
B         -2.55009       -1.72505       -0.52504
B         -2.50585       -3.30603        0.01043
B         -1.13925       -4.14713        0.11094
B          0.28342       -3.38704       -0.49434
B         -1.15538       -0.84512       -1.05262
B          1.73310       -0.84567       -0.79926
B          1.66268       -4.15684        0.28537
B         -3.99028       -0.85449       -0.24897
B          1.74752       -2.54730       -0.43057
B         -3.86414       -2.49436        0.25538
B          0.23787       -4.73745        0.37670
B          3.02954       -3.32809        0.28481
B          3.13948       -1.72055       -0.22604
B          4.55194       -0.87880        0.14879
B          0.35350        1.82347       -1.08906
B          1.79225        2.53438       -0.48662
B          3.17160        1.67932       -0.26979
B          4.55459        0.81610        0.17559
B          4.40709        2.45126        0.71798
B          3.08563        3.28674        0.24389
B          1.73447        4.14061        0.25256
B          0.33079        3.37751       -0.48233
B          0.32145        4.73390        0.38605
B         -2.45314        3.32922        0.04859
B         -1.07112        4.15455        0.13683
B         -2.52296        1.75178       -0.47128
B         -3.82698        2.52176        0.30898
B         -3.97201        0.89973       -0.23220
B         -1.13496        2.58947       -0.75864
B         -1.17375       -2.57547       -0.79455
B          3.30236       -0.01694       -0.62744
B         -1.14062        0.85060       -1.00779
B          4.34410       -2.48552        0.77286
B         -5.11586       -1.67248        0.80503
B         -5.21057        0.02747        0.49014
B         -5.08836        1.71863        0.84216
B         -6.10424        0.78553        1.58541
B         -6.11733       -0.73591        1.56924
B          1.76349        0.82611       -0.88108
B         -2.60133        0.03433       -0.72401
B          0.32895       -1.82597       -1.07851
B          5.41520       -1.56176        1.30938
B          5.63781       -0.01979        1.27328
B          5.48268        1.53184        1.25528
B          0.32670        0.00346       -0.96552
