45
isomer_3054.log	Energy: -113380.1564403
B         -2.74353        1.59167        0.62165
B         -2.73095        3.28970       -0.07953
B         -1.39226        4.09218       -0.15694
B          0.06903        3.24948        0.25586
B         -1.38078        0.79726        0.96718
B          1.62363        0.78651        0.88173
B          1.44416        4.21754       -0.08983
B         -4.10954        0.84009        0.21781
B          1.56416        2.54782        0.63124
B         -3.99105        2.41715       -0.23036
B          0.01362        4.74736       -0.27499
B          2.82546        3.43468       -0.04760
B          2.98551        1.80929        0.32202
B          4.46932        1.03157        0.00125
B          0.14624       -1.74413        1.42022
B          2.18796       -2.80158        0.60919
B          3.09023       -1.56333       -0.05984
B          4.33649       -0.53143       -0.58013
B          4.36505       -2.13930       -1.16546
B          3.11841       -3.06353       -0.73404
B          1.75664       -3.89507       -0.64721
B          0.49218       -3.29340        0.60112
B          0.37970       -4.43691       -0.58542
B         -2.40904       -3.19845       -0.15250
B         -0.98119       -3.93957       -0.22756
B         -2.59952       -1.63045        0.59550
B         -3.76827       -2.40994       -0.35093
B         -3.99310       -0.89702        0.19482
B         -1.15485       -2.49322        0.57565
B         -1.36044        2.34428        0.23732
B          3.16337        0.05794        0.49525
B         -1.25048       -0.84498        1.13983
B          4.21103        2.70530       -0.44886
B         -5.29951        1.54889       -0.75083
B         -5.32125       -0.08950       -0.35229
B         -5.16615       -1.71421       -0.80711
B         -6.24545       -0.87715       -1.48479
B         -6.28419        0.61391       -1.48846
B          1.83515       -0.90524        1.17595
B          1.44594       -2.39278        1.89455
B          0.13767        1.66704        0.74599
B          5.30673        1.87028       -1.08793
B          5.58390        0.37954       -1.32867
B          5.44454       -1.14527       -1.55528
B          0.18543       -0.03300        1.10244
