45
isomer_3055.log	Energy: -112986.3715929
B         -2.57900        1.70896        0.54916
B         -2.49160        3.36233        0.09909
B         -1.11935        4.16286       -0.06906
B          0.32499        3.39688        0.45274
B         -1.14962        0.89241        1.06329
B          1.72766        0.86535        0.79987
B          1.69728        4.12944       -0.32712
B         -3.96321        0.87959        0.24272
B          1.70419        2.48755        0.33028
B         -3.87413        2.50228       -0.12322
B          0.30528        4.73860       -0.40638
B          3.06786        3.26017       -0.35243
B          3.15170        1.71029        0.12037
B          4.54732        0.84611       -0.33909
B          0.51350       -1.64332        0.79881
B          1.79386       -2.45351        0.25286
B          3.19754       -1.64122        0.15156
B          4.57670       -0.80841       -0.26234
B          4.52124       -2.46390       -0.64357
B          3.09315       -3.22884       -0.32741
B          1.65553       -4.07332       -0.23412
B          0.24526       -3.32435        0.48413
B          0.25547       -4.68096       -0.32824
B         -2.59888       -3.28358       -0.21830
B         -1.19321       -4.11492       -0.21123
B         -2.62529       -1.61574        0.22433
B         -3.95613       -2.37790       -0.48477
B         -4.00381       -0.81690        0.16236
B         -1.31436       -2.57145        0.40492
B         -1.18049        2.59739        0.68141
B          3.25685        0.05365        0.46268
B         -1.46073       -0.57905        0.57071
B          4.47365        2.49714       -0.67648
B         -5.10244        1.77897       -0.77046
B         -5.18014        0.09807       -0.59932
B         -5.20707       -1.59037       -0.93750
B         -6.28397       -0.59630       -1.54212
B         -6.21167        0.89331       -1.51055
B          1.80257       -0.75392        0.75034
B         -1.34078       -0.46757        2.29940
B          0.36678        1.72844        0.99294
B          5.69762        1.59992       -1.05546
B          5.88267        0.03372       -1.04139
B          5.70459       -1.56553       -1.03080
B         -0.72739       -1.57241        1.59736
