45
isomer_3056.log	Energy: -113675.8823791
B         -2.56508        1.72910        0.53300
B         -2.51722        3.30316       -0.03496
B         -1.16122        4.14888       -0.10678
B          0.26604        3.40337        0.54065
B         -1.17203        0.85102        1.07073
B          1.71550        0.84373        0.78089
B          1.63796        4.17136       -0.25763
B         -3.98498        0.84301        0.22486
B          1.72120        2.55207        0.42805
B         -3.87159        2.48309       -0.27452
B          0.21499        4.74831       -0.35149
B          3.00525        3.34349       -0.27923
B          3.12671        1.73554        0.21831
B          4.54660        0.89782       -0.14273
B          0.37156       -1.82428        1.11840
B          1.80466       -2.53172        0.49092
B          3.17498       -1.67878        0.26153
B          4.53091       -0.79393       -0.24180
B          4.40941       -2.44256       -0.74816
B          3.09539       -3.27893       -0.26442
B          1.75237       -4.14378       -0.24381
B          0.35447       -3.38429        0.51505
B          0.34636       -4.74581       -0.35037
B         -2.42419       -3.33654       -0.04004
B         -1.04362       -4.15763       -0.12230
B         -2.50694       -1.76073        0.48633
B         -3.80704       -2.53929       -0.29399
B         -3.95510       -0.91323        0.21513
B         -1.11684       -2.59062        0.76406
B         -1.18849        2.57716        0.79031
B          3.29324        0.01761        0.60919
B         -1.12797       -0.84907        1.03869
B          4.32263        2.50229       -0.77182
B         -5.10504        1.64832       -0.84508
B         -5.19523       -0.04791       -0.52316
B         -5.05844       -1.74205       -0.86598
B         -6.08279       -0.81794       -1.61414
B         -6.10416        0.70254       -1.60672
B          1.79010       -0.82996        0.91639
B         -2.60974       -0.01724        0.74618
B          0.31082        1.83016        1.08574
B          5.36852        1.57147       -1.33986
B          5.61940        0.03604       -1.30538
B          5.47604       -1.51626       -1.30030
B          0.34260        0.00299        1.09028
