45
isomer_3057.log	Energy: -113181.5787081
B         -2.46093       -1.40427       -0.78352
B         -2.64604       -3.12975        0.02402
B         -1.48296       -4.23403       -0.56619
B         -0.10255       -3.37181       -0.48686
B         -1.20551       -0.22784       -1.29091
B          1.41439       -0.80557       -0.77274
B          1.22457       -4.01484        0.48004
B         -3.59999       -0.47644       -0.09758
B          1.30115       -2.45261       -0.35974
B         -3.72386       -2.05458        0.19312
B         -0.22923       -4.53723        0.73180
B          2.57329       -3.30883        0.46917
B          2.81688       -1.77676       -0.11986
B          4.32841       -1.09935        0.12978
B          0.47554        1.93960       -1.12783
B          1.91708        2.51301       -0.56109
B          3.18909        1.56998       -0.23730
B          4.49390        0.54586        0.17469
B          4.55240        2.21091        0.59732
B          3.32242        3.16079        0.17326
B          2.06590        4.13159        0.23226
B          0.62421        3.58213       -0.53939
B          0.72224        4.83252        0.43844
B         -2.16952        3.77687        0.10084
B         -0.75271        4.41546        0.16014
B         -2.32553        2.12117       -0.58437
B         -3.45745        2.96188        0.37545
B         -3.57862        1.32265       -0.03547
B         -0.91352        2.88333       -0.67911
B         -1.51244       -2.82278       -1.36043
B          3.04722       -0.15508       -0.51554
B         -1.04783        1.31510       -1.14360
B          3.99575       -2.63434        0.81629
B         -4.90624       -1.17919        0.87701
B         -4.77332        0.47929        0.60899
B         -4.71477        2.11962        0.97398
B         -5.77140        1.21122        1.67784
B         -5.88121       -0.27507        1.59238
B          1.68018        0.83960       -0.86879
B         -1.55078       -3.86407        0.96710
B          0.01391       -1.64875       -1.07875
B          5.21039       -1.83922        1.25869
B          5.60707       -0.35737        1.15288
B          5.60037        1.19582        1.09291
B         -1.36992       -1.45867       -2.08935
