45
isomer_3058.log	Energy: -113513.9030888
B         -2.46116        1.81816        0.38623
B         -2.38511        3.40050       -0.18770
B         -0.93729        4.13116       -0.37303
B          0.46108        3.36725        0.27663
B         -1.04947        0.91664        0.77618
B          1.76325        0.78404        0.73468
B          1.89114        4.06426       -0.38073
B         -3.93141        1.03631        0.35229
B          1.85277        2.43849        0.35080
B         -3.79776        2.65233       -0.26766
B          0.50230        4.66218       -0.62854
B          3.26421        3.22962       -0.17980
B          3.31106        1.65253        0.38748
B          4.74117        0.75679        0.29277
B          0.27914       -1.70059        0.95810
B          1.67924       -2.46810        0.26084
B          3.11375       -1.72403        0.27541
B          4.55313       -0.87852       -0.01918
B          4.40577       -2.47429       -0.62460
B          2.98737       -3.29257       -0.36086
B          1.60038       -3.96334       -0.55707
B          0.17158       -3.29614        0.40727
B          0.13098       -4.23250       -0.94087
B         -2.55656       -3.20850        0.10191
B         -1.26842       -3.88584       -0.48650
B         -2.49698       -1.62510        0.55202
B         -3.96871       -2.34446        0.00270
B         -3.98548       -0.73809        0.43747
B         -1.21664       -2.63853        1.20222
B         -1.03286        2.59638        0.42484
B          3.30257       -0.03201        0.77394
B         -1.03892       -0.77208        0.57793
B          4.61267        2.41386       -0.40892
B         -5.14204        1.85726       -0.60994
B         -5.26095        0.18974       -0.20059
B         -5.24281       -1.53460       -0.42704
B         -6.34902       -0.58167       -1.07401
B         -6.31024        0.92372       -1.14396
B          1.72436       -0.84090        0.83821
B         -2.52258        0.13952        0.75897
B          0.42908        1.69663        0.79346
B          5.70468        1.41923       -0.82295
B          5.88026       -0.08956       -0.81681
B          5.61523       -1.64096       -0.92846
B         -1.02272       -2.18425       -0.48315
