45
isomer_3059.log	Energy: -113625.7535774
B         -2.41893       -1.70569       -0.22550
B         -2.44099       -3.39383        0.16331
B         -1.07309       -4.21450        0.19627
B          0.37355       -3.45737       -0.60988
B          0.31035       -0.02324       -1.06627
B          1.78698       -0.81243       -0.90645
B          1.78873       -4.16632        0.22902
B         -3.89049       -0.93398       -0.14220
B          1.79295       -2.53563       -0.32672
B         -3.83259       -2.58253        0.32187
B          0.36394       -4.72269        0.39333
B          3.14685       -3.28856        0.22440
B          3.19618       -1.68120       -0.30594
B          4.57332       -0.76316        0.09863
B          0.30974        1.81371       -0.98065
B          1.66381        2.50341       -0.23959
B          3.10511        1.75209       -0.12590
B          4.58306        0.92781        0.02955
B          4.36377        2.53861        0.71779
B          2.97643        3.33940        0.40977
B          1.58996        4.18357        0.39987
B          0.24285        3.37205       -0.30208
B          0.16210        4.77106        0.43851
B         -2.58647        3.34928       -0.10010
B         -1.23537        4.15326        0.09580
B         -2.52677        1.72970       -0.51531
B         -3.91853        2.49174        0.17211
B         -3.85848        0.80661       -0.07347
B         -1.18540        2.61067       -0.83761
B         -1.07505       -2.61464       -0.43840
B          3.25907        0.04554       -0.61419
B         -1.17012        0.88192       -1.20852
B          4.50393       -2.42252        0.58482
B         -5.19063       -1.78648        0.61837
B         -5.14005       -0.04842        0.54588
B         -5.18506        1.64850        0.70818
B         -6.35117        0.69537        1.22130
B         -6.37412       -0.83322        1.14372
B          1.69679        0.86479       -0.73801
B         -2.53564       -0.00689       -0.68181
B          0.38001       -1.80587       -0.84750
B          5.62917       -1.49393        1.03451
B          5.76598        0.07985        1.05090
B          5.51925        1.62365        1.12154
B         -1.09492       -0.88951       -0.63336
