45
isomer_0306.log	Energy: -113441.9622180
B         -2.45296        1.82210        0.47064
B         -2.37715        3.45049       -0.10836
B         -0.98352        4.21741       -0.27665
B          0.43807        3.42861        0.34102
B         -1.14870        0.95834        1.03572
B          1.77422        0.86271        0.72278
B          1.82911        4.13240       -0.42437
B         -3.73091        1.01620       -0.01207
B          1.84481        2.55170        0.45494
B         -3.80025        2.68906       -0.15654
B          0.44982        4.75308       -0.56049
B          3.18969        3.24801       -0.35586
B          3.21133        1.68017        0.15747
B          4.64429        0.73130        0.04848
B          0.27848       -1.65375        1.30375
B          1.55418       -2.48697        0.56571
B          3.02605       -1.74176        0.31590
B          4.41362       -0.90444       -0.21194
B          4.26887       -2.56112       -0.59498
B          2.83261       -3.27089       -0.16865
B          1.38459       -3.97934       -0.24404
B         -0.07369       -3.24234        0.39236
B          0.05474       -4.49970       -0.66398
B         -2.65846       -3.19452       -0.79780
B         -1.38050       -4.10411       -0.81219
B         -2.47368       -1.74279        0.39411
B         -3.73676       -2.13748       -0.65257
B         -3.68406       -0.64713       -0.00649
B         -1.81775       -3.42228        0.59078
B         -1.09101        2.68608        0.57447
B          3.25466       -0.02524        0.65252
B         -1.28522       -0.63346        1.02430
B          4.49693        2.36528       -0.69224
B         -5.12969        1.93287       -0.50883
B         -5.17680        0.23467       -0.08089
B         -5.16307       -1.31865       -0.68439
B         -6.36871       -0.47533       -1.00311
B         -6.24526        1.00648       -1.06403
B          1.68387       -0.78758        1.00554
B         -1.16838       -2.28549        1.41952
B          0.39793        1.88211        0.97199
B          5.52083        1.33155       -1.14441
B          5.69849       -0.20914       -1.10216
B          5.45042       -1.75210       -1.08034
B          0.24888        0.09499        0.96540
