45
isomer_3062.log	Energy: -113675.8350818
B         -2.54719       -1.74017       -0.51511
B         -2.48695       -3.30966        0.04365
B         -1.12282       -4.15052        0.11984
B          0.29214       -3.39844       -0.52981
B         -1.15848       -0.84821       -1.06425
B          1.73514       -0.84010       -0.83465
B          1.67188       -4.15984        0.25992
B         -3.97594       -0.86350       -0.22100
B          1.74847       -2.54538       -0.45065
B         -3.85320       -2.50000        0.28203
B          0.25575       -4.74698        0.35854
B          3.03146       -3.31874        0.27777
B          3.14258       -1.71670       -0.23456
B          4.54512       -0.86610        0.16974
B          0.35140        1.82982       -1.11078
B          1.78047        2.53783       -0.47341
B          3.16053        1.69426       -0.24993
B          4.53836        0.82663        0.20949
B          4.38531        2.45895        0.75794
B          3.06569        3.29403        0.27423
B          1.71584        4.14888        0.25619
B          0.32600        3.39057       -0.51968
B          0.30612        4.74546        0.35823
B         -2.45186        3.32264        0.04206
B         -1.07780        4.15354        0.12437
B         -2.52545        1.75206       -0.49999
B         -3.82870        2.52151        0.28678
B         -3.96467        0.89025       -0.21810
B         -1.13839        2.58593       -0.77313
B         -1.16585       -2.58102       -0.78194
B          3.29478       -0.00584       -0.60770
B         -1.14163        0.84786       -1.05519
B          4.35181       -2.48074        0.76589
B         -5.09397       -1.67743        0.85048
B         -5.19704        0.01843        0.52182
B         -5.07602        1.71377        0.85732
B         -6.09178        0.78347        1.60949
B         -6.10020       -0.73831        1.60699
B          1.76249        0.83395       -0.88077
B         -2.60974        0.00619       -0.74391
B          0.34364       -0.00192       -1.11365
B          5.40601       -1.55543        1.32813
B          5.62128       -0.01358        1.30334
B          5.44784        1.53520        1.31322
B          0.32758       -1.83262       -1.09925
