45
isomer_3065.log	Energy: -113441.9545323
B         -2.47294       -1.74224       -0.39467
B         -2.65676       -3.19408        0.79779
B         -1.37896       -4.10341        0.81293
B         -0.07228       -3.24279       -0.39316
B         -1.28496       -0.63375       -1.02541
B          1.68524       -0.78733       -1.00791
B          1.38586       -3.97929        0.24399
B         -3.68546       -0.64839        0.00371
B          1.55546       -2.48720       -0.56665
B         -3.73496       -2.13686        0.65311
B          0.05605       -4.49953        0.66407
B          2.83379       -3.27038        0.16834
B          3.02683       -1.74133       -0.31712
B          4.41249       -0.90314        0.21441
B          0.39713        1.88187       -0.97038
B          1.84502        2.55247       -0.45675
B          3.21018        1.68058       -0.15613
B          4.64363        0.73237       -0.04799
B          4.49643        2.36682        0.69186
B          3.18947        3.24944        0.35492
B          1.82829        4.13295        0.42429
B          0.43715        3.42782       -0.33881
B          0.44857        4.75268        0.56157
B         -2.37842        3.44914        0.10787
B         -0.98492        4.21626        0.27731
B         -2.45423        1.82076       -0.47427
B         -3.80136        2.68797        0.15354
B         -3.73350        1.01517        0.00526
B         -1.09209        2.68578       -0.57473
B         -1.81601       -3.42217       -0.59059
B          3.25354       -0.02447       -0.65085
B         -1.14871        0.95840       -1.03833
B          4.26993       -2.56041        0.59469
B         -5.16163       -1.31909        0.68846
B         -5.17838        0.23286        0.08161
B         -5.13063        1.93159        0.50726
B         -6.24376        1.00584        1.06757
B         -6.36654       -0.47609        1.01006
B          1.77107        0.86225       -0.71674
B         -1.16747       -2.28580       -1.41989
B          0.27941       -1.65435       -1.30441
B          5.45125       -1.75090        1.08026
B          5.69845       -0.20745        1.10234
B          5.52024        1.33313        1.14451
B          0.24846        0.09432       -0.96696
