45
isomer_3066.log	Energy: -113441.8584562
B          2.46953        1.80785       -0.50099
B          2.40131        3.43750        0.08833
B          1.01263        4.20633        0.27457
B         -0.41802        3.42511       -0.32993
B          1.15316        0.95357       -1.05038
B         -1.76745        0.86828       -0.71478
B         -1.80079        4.13368        0.44374
B          3.75219        1.00263       -0.03434
B         -1.82886        2.55615       -0.44126
B          3.82133        2.67355        0.12152
B         -0.41730        4.74729        0.57344
B         -3.16750        3.25735        0.37621
B         -3.19774        1.68991       -0.14009
B         -4.64042        0.75349       -0.04897
B         -0.28689       -1.65463       -1.30633
B         -1.56799       -2.48154       -0.57002
B         -3.03686       -1.72878       -0.32278
B         -4.41945       -0.88462        0.20797
B         -4.28670       -2.54403        0.58320
B         -2.85252       -3.25997        0.15975
B         -1.40864       -3.97412        0.24176
B          0.05643       -3.24367       -0.39158
B         -0.08282       -4.49540        0.67060
B          2.63256       -3.19482        0.80743
B          1.35172       -4.09890        0.82251
B          2.46281       -1.74702       -0.39610
B          3.71436       -2.14075        0.66433
B          3.68818       -0.66290       -0.00815
B          1.80030       -3.42642       -0.58369
B          1.10723        2.67887       -0.58304
B         -3.25463       -0.01041       -0.65232
B          1.27879       -0.64051       -1.03025
B         -4.48153        2.38222        0.70442
B          5.14482        1.91264        0.48995
B          5.18555        0.20771        0.08871
B          5.14620       -1.33468        0.71509
B          6.35019       -0.49644        1.05094
B          6.23932        0.98712        1.08319
B         -1.68925       -0.78061       -1.00917
B          1.15641       -2.29451       -1.42198
B         -0.38831        1.88229       -0.96985
B         -5.51424        1.35267        1.14664
B         -5.70335       -0.18578        1.09606
B         -5.46508       -1.73053        1.06777
B         -0.24868        0.09484       -0.97210
