45
isomer_3067.log	Energy: -113478.1911785
B          2.52148        1.65472       -0.56890
B          2.48005        3.31570        0.06547
B          1.10532        4.09853        0.27264
B         -0.32711        3.38870       -0.36454
B          1.15619        0.90987       -1.02903
B         -1.78323        0.89285       -0.94638
B         -1.70945        4.14636        0.40658
B          3.94177        0.93048       -0.29618
B         -1.76529        2.55400       -0.45249
B          3.82193        2.50592        0.11870
B         -0.30651        4.69602        0.56534
B         -3.07771        3.28915        0.34866
B         -3.15698        1.74821       -0.22769
B         -4.49816        0.78343        0.21693
B         -0.17728       -1.60188       -0.45379
B         -1.65385       -2.47790       -0.36055
B         -3.11163       -1.70614       -0.38586
B         -4.57747       -0.85440       -0.15304
B         -4.38244       -2.47099        0.46127
B         -3.01807       -3.31163        0.07685
B         -1.64293       -4.13039        0.13698
B         -0.13174       -3.32035       -0.58108
B         -0.28939       -4.53249        0.55231
B          2.49318       -3.11313        0.41666
B          1.13036       -3.86584        0.48911
B          2.58248       -1.69866       -0.63804
B          3.85369       -2.29972        0.37065
B          3.96075       -0.81888       -0.28420
B          1.33305       -2.73971       -1.06972
B          1.16040        2.60717       -0.63580
B         -3.25895        0.04594       -0.67045
B          1.28718       -0.72048       -0.72734
B         -4.42678        2.44745        0.72629
B          5.20775        1.73178        0.53102
B          5.28232        0.08784        0.11745
B          5.23312       -1.51677        0.64193
B          6.31708       -0.59357        1.23176
B          6.30151        0.88206        1.17119
B         -1.66742       -0.75582       -0.72219
B         -0.24794        0.06080       -1.06086
B         -0.35283        1.86569       -1.05023
B         -5.56298        1.51140        1.14219
B         -5.72678       -0.03394        1.06669
B         -5.44169       -1.55243        1.01921
B          1.12496       -2.03893        0.53249
