45
isomer_3068.log	Energy: -113617.5446103
B          2.46632       -1.76883        0.45734
B          2.43198       -3.38383       -0.13625
B          1.02880       -4.19691       -0.23397
B         -0.40081       -3.42929        0.51221
B          1.09928       -0.94462        0.89150
B         -1.77192       -0.84091        0.86648
B         -1.81590       -4.14507       -0.28608
B          3.79706       -0.89414        0.00733
B         -1.78495       -2.54780        0.35896
B          3.85587       -2.55617       -0.23262
B         -0.39597       -4.70798       -0.47454
B         -3.17005       -3.28301       -0.19812
B         -3.22391       -1.70925        0.36324
B         -4.53940       -0.76019       -0.20338
B         -0.30127        1.82398        0.99045
B         -1.71972        2.58439        0.51913
B         -3.11575        1.77155        0.23930
B         -4.56359        0.91245       -0.06864
B         -4.36641        2.56276       -0.66504
B         -3.01370        3.36716       -0.24792
B         -1.63082        4.18054       -0.32401
B         -0.24062        3.35583        0.24347
B         -0.21251        4.77214       -0.46471
B          2.57321        3.34720        0.00171
B          1.21394        4.17586       -0.14484
B          2.57685        1.72736        0.28292
B          3.99333        2.50504       -0.13712
B          3.89033        0.81512       -0.01362
B          1.20427        2.56682        0.64303
B          1.09207       -2.65562        0.48827
B         -3.27371        0.02575        0.61572
B          2.39361        0.01698        0.40554
B         -4.49418       -2.42054       -0.64504
B          5.18456       -1.76944       -0.63907
B          5.19648       -0.07052       -0.47613
B          5.28069        1.66573       -0.59156
B          6.42264        0.68832       -1.13067
B          6.37779       -0.84621       -1.18148
B         -1.69770        0.83218        0.81407
B          1.15330        0.85968        0.99361
B         -0.37967       -0.05294        1.36120
B         -5.58131       -1.48258       -1.16837
B         -5.70605        0.09496       -1.18048
B         -5.44958        1.64490       -1.19128
B         -0.38288       -1.83088        0.97945
