45
isomer_3069.log	Energy: -111621.6710090
B         -2.57459       -1.61228       -0.41508
B         -2.58335       -3.24658       -0.01938
B         -1.18542       -4.08896        0.23158
B          0.28002       -3.27725       -0.32629
B         -1.10591       -0.73864       -0.72911
B          1.76835       -0.79905       -0.81373
B          1.66197       -4.07062        0.37022
B         -4.02403       -0.72230       -0.35009
B          1.67232       -2.39704       -0.23784
B         -3.98217       -2.41038        0.12283
B          0.23025       -4.71792        0.51575
B          3.10265       -3.23855        0.37678
B          3.14614       -1.62296       -0.20512
B          4.61424       -0.82079        0.28403
B          0.36093        1.77129       -0.90483
B          1.75064        2.45783       -0.28507
B          3.19874        1.63741       -0.23684
B          4.64036        0.79797        0.26828
B          4.49790        2.36043        0.49830
B          3.20756        3.26457        0.31351
B          1.79446        4.14239        0.29032
B          0.38743        3.38060       -0.39106
B          0.38441        4.83823        0.42278
B         -2.47535        3.44828       -0.08451
B         -1.05090        4.24986        0.15046
B         -2.51943        1.80716       -0.44835
B         -3.90036        2.66055        0.07350
B         -3.99680        0.96582       -0.36651
B         -1.07618        2.60665       -0.61863
B         -1.15793       -2.46106       -0.56933
B          3.25419       -0.09796       -0.61660
B         -1.07978        0.88066       -0.74486
B          4.42154       -2.37307        0.54435
B         -5.29333       -1.57951        0.61867
B         -5.26412        0.04904        0.36889
B         -5.23749        1.88221        0.58499
B         -6.41812        0.95222        1.19616
B         -6.44317       -0.60022        1.21126
B          1.79490        0.84668       -0.82974
B         -2.48812       -0.46886        0.37855
B          0.30528       -1.67822       -0.87127
B          5.94138       -1.68440        0.75201
B          6.16404        0.02602        0.80040
B          5.99419        1.75894        0.78911
B         -0.71734       -2.07820       -1.09850
