45
isomer_0307.log	Energy: -112622.8839493
B          2.62589       -1.69194        0.39984
B          2.61641       -3.33125        0.02541
B          1.20913       -4.16142       -0.21366
B         -0.24688       -3.32650        0.33457
B          1.16712       -0.79824        0.70345
B         -1.70756       -0.82600        0.79072
B         -1.63800       -4.11364       -0.35067
B          4.08494       -0.81884        0.32234
B         -1.62952       -2.43228        0.23559
B          4.02419       -2.51236       -0.12857
B         -0.21357       -4.77845       -0.48870
B         -3.06948       -3.26597       -0.36710
B         -3.09479       -1.64257        0.19377
B         -4.55440       -0.83076       -0.30480
B         -0.27197        1.72972        0.84748
B         -1.65457        2.42335        0.21975
B         -3.11161        1.61831        0.18314
B         -4.56275        0.78825       -0.31008
B         -4.40335        2.34593       -0.56049
B         -3.10303        3.23819       -0.38831
B         -1.68037        4.10067       -0.37746
B         -0.28123        3.33241        0.31285
B         -0.26288        4.77922       -0.51988
B          2.58187        3.36468        0.00358
B          1.16611        4.17872       -0.24087
B          2.60824        1.72804        0.38869
B          3.99803        2.55937       -0.14511
B          4.07623        0.86955        0.31683
B          1.17398        2.54546        0.54950
B          1.20012       -2.52305        0.56603
B         -3.18578       -0.11127        0.58547
B          1.15876        0.82133        0.69816
B         -4.37892       -2.38832       -0.54505
B          5.34400       -1.70245       -0.63602
B          5.33284       -0.07056       -0.40742
B          5.32614        1.75983       -0.64731
B          6.49602        0.80908       -1.24711
B          6.50403       -0.74361       -1.24204
B         -1.71605        0.82000        0.78535
B          0.10035       -0.53273       -0.20726
B         -0.25417       -1.72034        0.85873
B         -5.89130       -1.68577       -0.76065
B         -6.09523        0.02622       -0.83112
B         -5.90638        1.75717       -0.84248
B          0.11938        0.41283        2.44091
