45
isomer_3070.log	Energy: -113675.8852939
B          2.56397       -1.73027        0.53128
B          2.51468       -3.30355       -0.03679
B          1.15813       -4.14900       -0.10906
B         -0.26804       -3.40265        0.53830
B          1.17089       -0.85093        1.06860
B         -1.71687       -0.84318        0.78384
B         -1.64107       -4.17041       -0.25780
B          3.98447       -0.84480        0.22469
B         -1.72386       -2.55183        0.43050
B          3.87018       -2.48460       -0.27578
B         -0.21846       -4.74806       -0.35294
B         -3.00821       -3.34187       -0.27755
B         -3.12850       -1.73382        0.22037
B         -4.54718       -0.89522       -0.14346
B         -0.37010        1.82487        1.11723
B         -1.80282        2.53240        0.48902
B         -3.17406        1.68008        0.26102
B         -4.53148        0.79671       -0.23942
B         -4.40759        2.44401       -0.74915
B         -3.09287        3.28005       -0.26601
B         -1.74928        4.14402       -0.24596
B         -0.35193        3.38432        0.51374
B         -0.34289        4.74581       -0.35194
B          2.42684        3.33532       -0.03914
B          1.04655        4.15720       -0.12279
B          2.50844        1.75977        0.48824
B          3.80924        2.53771       -0.29223
B          3.95608        0.91117        0.21585
B          1.11844        2.58994        0.76458
B          1.18664       -2.57742        0.78881
B         -3.29355       -0.01615        0.60962
B          1.12888        0.84867        1.04055
B         -4.32544       -2.50053       -0.77004
B          5.10464       -1.65065       -0.84527
B          5.19560        0.04544       -0.52260
B          5.06025        1.73978       -0.86447
B          6.08427        0.81530       -1.61265
B          6.10486       -0.70537       -1.60554
B         -1.78802        0.83049        0.91361
B          2.60988        0.01632        0.74642
B         -0.31228       -1.83028        1.08600
B         -5.37142       -1.56988       -1.33833
B         -5.61975       -0.03398       -1.30450
B         -5.47442        1.51806       -1.30093
B         -0.34285       -0.00298        1.09208
