45
isomer_3072.log	Energy: -113382.4019836
B         -2.63786       -1.66830       -0.50258
B         -2.70701       -3.18965        0.43786
B         -1.31081       -3.97855        0.58061
B          0.14429       -3.28311       -0.51742
B         -1.08178       -0.77017       -0.98700
B          1.79377       -0.81439       -0.90206
B          1.53377       -3.94466        0.36663
B         -4.02458       -0.75489       -0.27480
B          1.70412       -2.43823       -0.38483
B         -4.00372       -2.34385        0.37122
B          0.12074       -4.40176        0.66026
B          2.97455       -3.26492        0.32512
B          3.11512       -1.68472       -0.16261
B          4.50386       -0.87101        0.31167
B          0.45871        1.65398       -0.88603
B          1.90613        2.48249       -0.43609
B          3.33280        1.67452       -0.35974
B          4.72161        0.79353        0.07892
B          4.61168        2.41247        0.59692
B          3.24639        3.21713        0.25921
B          1.88340        4.07696        0.29730
B          0.47848        3.34435       -0.45756
B          0.48421        4.67618        0.44217
B         -2.35515        3.37496        0.00647
B         -0.91688        4.13906        0.13633
B         -2.46674        1.77889       -0.36826
B         -3.79060        2.67061        0.19255
B         -3.96841        1.01700       -0.33061
B         -1.00354        2.52093       -0.53582
B         -1.41951       -2.70071       -0.46065
B          3.29857       -0.01767       -0.53227
B         -1.03917        0.83967       -0.76437
B          4.42270       -2.52200        0.65529
B         -5.25477       -1.43366        0.79592
B         -5.24679        0.21269        0.38726
B         -5.13598        1.93275        0.62338
B         -6.25919        1.07429        1.31527
B         -6.28425       -0.43000        1.44064
B          1.84349        0.81799       -0.87239
B         -2.54537        0.05932       -0.73309
B          0.43297       -1.62865       -1.24980
B          5.64858       -1.67912        1.06488
B          5.87306       -0.09581        1.07566
B          5.71488        1.44936        1.12188
B         -0.79577       -2.30332       -1.82546
