45
isomer_3074.log	Energy: -113410.0249673
B         -2.57980       -1.53655       -0.58921
B         -2.59010       -3.20628        0.81917
B         -1.29947       -3.97112        0.16102
B          0.18025       -3.23617       -0.42250
B         -1.19220       -0.65516       -1.03184
B          1.74243       -0.80181       -0.94976
B          1.51681       -4.06665        0.29572
B         -3.85479       -0.66574       -0.12269
B          1.67711       -2.46898       -0.49395
B         -3.74850       -2.28158        0.45738
B          0.10341       -4.61425        0.39196
B          2.90291       -3.29067        0.29509
B          3.09690       -1.72786       -0.25276
B          4.52100       -0.90925        0.13037
B          0.38100        1.88447       -1.10817
B          1.82887        2.53219       -0.49716
B          3.20090        1.67566       -0.23724
B          4.58727        0.74781        0.13203
B          4.44013        2.37496        0.75421
B          3.12901        3.23076        0.31402
B          1.77544        4.12525        0.32801
B          0.39768        3.39974       -0.43785
B          0.38959        4.75366        0.43785
B         -2.39442        3.43190        0.01045
B         -1.01616        4.19888        0.17695
B         -2.47148        1.78333       -0.53259
B         -3.74561        2.63723        0.20881
B         -3.85646        1.05077       -0.20275
B         -1.10247        2.65814       -0.74851
B         -1.19980       -2.41966       -1.00932
B          3.32889       -0.02656       -0.66378
B         -1.14472        0.92845       -1.05506
B          4.27910       -2.51156        0.75144
B         -5.08885       -1.37968        0.85004
B         -5.13480        0.20849        0.34567
B         -5.11969        1.89534        0.66757
B         -6.15553        1.06660        1.37814
B         -6.10627       -0.43264        1.50366
B          1.78744        0.84356       -0.93304
B         -2.59802       -3.20561       -0.72737
B          0.30026       -1.73875       -1.18142
B          5.39203       -1.65144        1.27031
B          5.64507       -0.11669        1.26882
B          5.49051        1.41683        1.28662
B          0.30513        0.07065       -1.03833
