45
isomer_3076.log	Energy: -113441.9620699
B         -2.45244        1.82263        0.46964
B         -2.37617        3.45081       -0.10944
B         -0.98230        4.21764       -0.27669
B          0.43900        3.42859        0.34115
B         -1.14877        0.95850        1.03597
B          1.77338        0.86216        0.72071
B          1.83035        4.13263       -0.42329
B         -3.73072        1.01692       -0.01264
B          1.84588        2.55190        0.45725
B         -3.79940        2.68992       -0.15793
B          0.45111        4.75320       -0.56015
B          3.19075        3.24796       -0.35466
B          3.21145        1.67952        0.15703
B          4.64440        0.73048        0.04885
B          0.27824       -1.65367        1.30390
B          1.55388       -2.48715        0.56553
B          3.02563       -1.74240        0.31510
B          4.41281       -0.90495       -0.21328
B          4.26829       -2.56198       -0.59566
B          2.83173       -3.27157       -0.16933
B          1.38328       -3.97974       -0.24384
B         -0.07379       -3.24213        0.39340
B          0.05273       -4.49993       -0.66269
B         -2.65942       -3.19432       -0.79710
B         -1.38251       -4.10490       -0.81230
B         -2.47387       -1.74277        0.39396
B         -3.73713       -2.13667       -0.65234
B         -3.68363       -0.64631       -0.00691
B         -1.81720       -3.42245        0.59081
B         -1.09055        2.68641        0.57387
B          3.25402       -0.02582        0.65131
B         -1.28513       -0.63352        1.02425
B          4.49796        2.36495       -0.69099
B         -5.12916        1.93365       -0.50942
B         -5.17648        0.23547       -0.08038
B         -5.16326       -1.31774       -0.68402
B         -6.36907       -0.47447       -1.00212
B         -6.24515        1.00723       -1.06361
B          1.68405       -0.78775        1.00583
B         -1.16886       -2.28531        1.41981
B          0.39788        1.88217        0.97180
B          5.52118        1.33078       -1.14367
B          5.69844       -0.20995       -1.10213
B          5.45002       -1.75297       -1.08083
B          0.24852        0.09496        0.96525
