45
isomer_3077.log	Energy: -113372.4691017
B         -2.51971        1.66309        0.52553
B         -2.47782        3.39209       -0.08149
B         -1.12083        4.18703       -0.19177
B          0.34383        3.42994        0.49263
B         -1.14344        0.99728        0.84296
B          1.84131        0.90088        1.04001
B          1.73411        4.14722       -0.29315
B         -3.89535        0.91056        0.16456
B          1.80740        2.59763        0.50462
B         -3.78197        2.50634       -0.26362
B          0.31891        4.70982       -0.47292
B          3.09173        3.28327       -0.32608
B          3.17173        1.69180        0.28163
B          4.56099        0.79527       -0.20543
B          0.32930       -1.79297        0.99214
B          1.79365       -2.59382        0.55583
B          3.16656       -1.70185        0.34204
B          4.55312       -0.84613       -0.12169
B          4.37955       -2.50358       -0.65231
B          3.05073       -3.32536       -0.22481
B          1.66197       -4.12690       -0.31044
B          0.24785       -3.35014        0.24867
B          0.23343       -4.71368       -0.52458
B         -2.57194       -3.31518       -0.19289
B         -1.19816       -4.07592       -0.32811
B         -2.68043       -1.70454        0.37497
B         -3.99719       -2.52205       -0.24078
B         -3.96274       -0.85493        0.11062
B         -1.22230       -2.51263        0.48914
B         -1.11745        2.63512        0.56682
B          3.21422       -0.00829        0.56325
B         -1.90971       -0.34972        0.60964
B          4.39987        2.44260       -0.73984
B         -5.16525        1.74237       -0.68941
B         -5.20929        0.07741       -0.35523
B         -5.27401       -1.61881       -0.71363
B         -6.30696       -0.62857       -1.33724
B         -6.29429        0.87247       -1.29401
B          1.79777       -0.89506        1.03099
B         -0.99521       -1.20384        1.55287
B          0.37228        1.77500        0.88037
B          5.49974        1.51093       -1.25518
B          5.64354       -0.02256       -1.25697
B          5.42583       -1.57203       -1.23424
B          0.20461       -0.02954        1.13652
