45
isomer_3078.log	Energy: -111877.2300742
B         -2.63410        1.72056        0.42510
B         -2.61898        3.36006        0.05170
B         -1.20872        4.18637       -0.18317
B          0.24346        3.34698        0.36836
B         -1.17868        0.82252        0.73198
B          1.69583        0.84205        0.82682
B          1.63861        4.13057       -0.31273
B         -4.09542        0.85166        0.34323
B          1.62381        2.44889        0.27247
B         -4.02868        2.54528       -0.10648
B          0.21645        4.79951       -0.45410
B          3.06771        3.27885       -0.32593
B          3.08693        1.65504        0.23402
B          4.54553        0.83938       -0.26123
B          0.25283       -1.70960        0.87824
B          1.63509       -2.40679        0.25372
B          3.09450       -1.60587        0.22143
B          4.54929       -0.77964       -0.26748
B          4.38612       -2.33671       -0.51925
B          3.08282       -3.22537       -0.35104
B          1.65769       -4.08381       -0.34445
B          0.25894       -3.31199        0.34265
B          0.23866       -4.75824       -0.49100
B         -2.60343       -3.33592        0.02585
B         -1.18934       -4.15384       -0.21538
B         -2.62616       -1.69945        0.41189
B         -4.01690       -2.52650       -0.12606
B         -4.09150       -0.83674        0.33671
B         -1.19465       -2.52105        0.57597
B         -1.20642        2.54751        0.59554
B          3.17254        0.12324        0.62501
B         -1.17492       -0.79705        0.72573
B          4.37512        2.39758       -0.50097
B         -5.34944        1.73943       -0.61789
B         -5.34353        0.10738       -0.39026
B         -5.34140       -1.72287       -0.63126
B         -6.50699       -0.76844       -1.23354
B         -6.51060        0.78427       -1.22754
B          1.69965       -0.80396        0.82046
B         -0.77780       -0.86501        1.40103
B          0.24481        1.74049        0.89156
B          5.88605        1.69086       -0.71303
B          6.08529       -0.02167       -0.78403
B          5.89155       -1.75206       -0.79694
B          1.06840        0.06407       -0.50571
