45
isomer_3079.log	Energy: -113021.2910227
B          2.67044        1.77586       -0.46304
B          2.55089        3.41695       -0.06785
B          1.12523        4.24668        0.15675
B         -0.31177        3.45089       -0.37153
B          1.42074        0.85759       -0.75714
B         -1.74158        0.87697       -0.86307
B         -1.69615        4.17462        0.31123
B          4.00066        0.91777       -0.37628
B         -1.74259        2.53905       -0.28315
B          3.91816        2.56304        0.08181
B         -0.28910        4.76124        0.42762
B         -3.10711        3.29925        0.33268
B         -3.13892        1.70751       -0.22424
B         -4.56945        0.81693        0.26206
B         -0.22406       -1.75768       -0.96115
B         -1.63053       -2.45094       -0.31944
B         -3.07362       -1.65203       -0.25687
B         -4.50416       -0.83155        0.24578
B         -4.38086       -2.42016        0.52225
B         -2.97996       -3.25745        0.27635
B         -1.57688       -4.10818        0.24800
B         -0.20235       -3.35756       -0.44797
B         -0.14946       -4.68972        0.35573
B          2.64653       -3.31063       -0.10184
B          1.23383       -4.14256        0.11397
B          2.64616       -1.67714       -0.46873
B          3.99068       -2.39430        0.07171
B          4.02540       -0.80532       -0.36898
B          1.25560       -2.56466       -0.66694
B          1.22558        2.66707       -0.59672
B         -3.19787        0.08845       -0.63219
B          1.20423       -0.92738       -0.75865
B         -4.52399        2.41850        0.56589
B          5.17477        1.78358        0.59612
B          5.18540        0.13195        0.36632
B          5.19615       -1.58920        0.58835
B          6.25144       -0.65347        1.17432
B          6.29177        0.81722        1.20282
B         -1.70763       -0.79882       -0.87828
B          0.27469       -1.90640        0.93066
B         -0.38120        1.85618       -0.91511
B         -5.76965        1.50519        0.72772
B         -5.88683       -0.05796        0.75133
B         -5.67936       -1.60663        0.73780
B          0.17672        0.28726       -0.26812
