45
isomer_3081.log	Energy: -113529.1686478
B         -2.74404       -1.44712       -1.15764
B         -2.90080       -3.08679       -0.40153
B         -1.63476       -3.40797        0.55540
B         -0.01245       -3.23023       -0.26750
B         -1.20876       -0.75282       -0.91732
B          1.68583       -0.99083       -1.00851
B          1.18414       -3.82845        0.85715
B         -3.71744       -0.72806        0.17723
B          1.45867       -2.45972       -0.13667
B         -4.19057       -2.19903       -0.48644
B         -0.29281       -3.99580        1.12112
B          2.69497       -3.24902        0.67591
B          3.00881       -1.90718       -0.20627
B          4.51315       -1.12983        0.00901
B          0.52653        1.58344       -0.68466
B          2.02300        2.28753       -0.51972
B          3.41742        1.43684       -0.55215
B          4.79542        0.43690       -0.48588
B          4.81766        2.15827        0.04827
B          3.49216        3.04509       -0.19357
B          2.18225        3.99595        0.04006
B          0.68474        3.25913       -0.24213
B          0.85670        4.70213        0.35900
B         -2.03031        3.42964        0.60723
B         -0.62876        4.16222        0.42647
B         -2.07570        1.67969        0.41684
B         -3.46380        2.72709        0.69699
B         -3.55684        1.01919        0.67454
B         -0.87202        2.56197       -0.21438
B         -1.34291       -2.44724       -0.93003
B          3.30601       -0.29847       -0.86455
B         -0.92244        0.82635       -0.47940
B          4.18528       -2.60832        0.84110
B         -5.40899       -1.21738       -0.26049
B         -5.05181        0.32966        0.39566
B         -4.89209        2.05863        0.60986
B         -6.28745        1.33109        0.26282
B         -6.50288       -0.11237       -0.10962
B          1.81223        0.61828       -0.79868
B         -2.23887       -1.70967        0.55249
B          0.25116       -1.72161       -1.10261
B          5.49076       -1.85065        1.03687
B          5.87864       -0.38014        0.73090
B          5.84583        1.14759        0.49963
B         -2.13487       -0.03798        0.42521
