45
isomer_3082.log	Energy: -113441.8214507
B          2.45912       -1.74622        0.39392
B          2.62502       -3.19308       -0.81286
B          1.34339       -4.09587       -0.82655
B          0.05268       -3.24346        0.39128
B          1.27662       -0.64129        1.02972
B         -1.69140       -0.77922        1.01414
B         -1.41424       -3.97196       -0.23992
B          3.68796       -0.66439        0.00896
B         -1.57343       -2.48125        0.57488
B          3.70722       -2.13927       -0.67025
B         -0.09033       -4.49418       -0.67201
B         -2.85764       -3.25715       -0.15496
B         -3.04126       -1.72599        0.33090
B         -4.41938       -0.88134       -0.20854
B         -0.38617        1.88138        0.96834
B         -1.82686        2.55706        0.44446
B         -3.20145        1.69707        0.15642
B         -4.63911        0.75662        0.04277
B         -4.47741        2.38706       -0.70404
B         -3.16561        3.26185       -0.36942
B         -1.79662        4.13353       -0.44597
B         -0.41330        3.41933        0.31860
B         -0.41131        4.74233       -0.58237
B          2.40739        3.43328       -0.08884
B          1.01909        4.20012       -0.28247
B          2.47384        1.80260        0.50297
B          3.82868        2.67185       -0.11294
B          3.76168        1.00317        0.04390
B          1.11119        2.67476        0.57930
B          1.79724       -3.42542        0.57950
B         -3.25791       -0.00799        0.65770
B          1.15316        0.95247        1.05095
B         -4.28910       -2.54047       -0.58312
B          5.14149       -1.33858       -0.72198
B          5.18810        0.19907       -0.08692
B          5.15306        1.90851       -0.48015
B          6.24253        0.98123       -1.07919
B          6.34751       -0.50280       -1.05710
B         -1.76971        0.86979        0.72192
B          1.15353       -2.29519        1.42070
B         -0.28942       -1.65568        1.30776
B         -5.46254       -1.72526       -1.07417
B         -5.69760       -0.17959       -1.10467
B         -5.50764        1.35876       -1.15504
B         -0.25106        0.09380        0.97440
