45
isomer_3085.log	Energy: -111870.7582490
B         -2.58969        1.76173        0.39992
B         -2.56919        3.40298        0.03457
B         -1.15632        4.22518       -0.19907
B          0.29382        3.37766        0.34541
B         -1.13703        0.85677        0.69946
B          1.73771        0.86511        0.78861
B          1.69052        4.15940       -0.33462
B         -4.05441        0.89870        0.31672
B          1.67060        2.47492        0.24233
B         -3.98223        2.59425       -0.12478
B          0.27060        4.83432       -0.46984
B          3.11640        3.30242       -0.35488
B          3.13066        1.67582        0.19702
B          4.58521        0.85717       -0.30516
B          0.28528       -1.68136        0.83038
B          1.66369       -2.38061        0.19966
B          3.12602       -1.58500        0.16837
B          4.58291       -0.76180       -0.31938
B          4.41341       -2.31699       -0.57849
B          3.10714       -3.20161       -0.41203
B          1.67882       -4.05474       -0.40681
B          0.28433       -3.28110        0.28690
B          0.25699       -4.72314       -0.55382
B         -2.57872       -3.29280       -0.02427
B         -1.16819       -4.11479       -0.27236
B         -2.59456       -1.65817        0.36987
B         -3.98946       -2.47737       -0.16935
B         -4.05682       -0.78965        0.30188
B         -1.16581       -2.48591        0.52703
B         -1.15859        2.58250        0.57157
B          3.21132        0.14180        0.58030
B         -1.13934       -0.76276        0.68523
B          4.42015        2.41715       -0.53689
B         -5.30701        1.79587       -0.63750
B         -5.30675        0.16270       -0.41791
B         -5.31195       -1.66633       -0.66792
B         -6.47516       -0.70460       -1.26315
B         -6.47295        0.84806       -1.24951
B          1.73537       -0.78085        0.77415
B         -1.08696       -1.31918       -0.04051
B          0.29020        1.76862        0.86069
B          5.92800        1.70586       -0.75546
B          6.12070       -0.00703       -0.83528
B          5.92047       -1.73660       -0.85632
B         -0.21916       -0.92661        2.60526
