45
isomer_3087.log	Energy: -112125.0969294
B         -2.61497       -1.68288       -0.50059
B         -2.60623       -3.32371       -0.13292
B         -1.19939       -4.15502        0.10487
B          0.25754       -3.31799       -0.43768
B         -1.15565       -0.78808       -0.79827
B          1.71916       -0.81578       -0.88128
B          1.64752       -4.10811        0.24642
B         -4.07405       -0.80994       -0.42170
B          1.64011       -2.42434       -0.33290
B         -4.01416       -2.50532        0.02229
B          0.22283       -4.77332        0.37953
B          3.07906       -3.26066        0.26853
B          3.10539       -1.63497       -0.28559
B          4.56432       -0.82537        0.21856
B          0.28391        1.74029       -0.92967
B          1.66562        2.43119       -0.29697
B          3.12252        1.62585       -0.26146
B          4.57282        0.79360        0.23054
B          4.41320        2.35025        0.48713
B          3.11323        3.24335        0.31666
B          1.69068        4.10602        0.30720
B          0.29252        3.34076       -0.38841
B          0.27304        4.78413        0.45026
B         -2.57105        3.37206       -0.08337
B         -1.15558        4.18493        0.16659
B         -2.59700        1.73703       -0.47528
B         -3.98752        2.56630        0.05982
B         -4.06518        0.87840       -0.40921
B         -1.16241        2.55496       -0.63053
B         -1.18903       -2.51345       -0.66804
B          3.19713       -0.10206       -0.67082
B         -1.14714        0.83145       -0.78629
B          4.38833       -2.38389        0.45210
B         -5.33465       -1.69737        0.53108
B         -5.32299       -0.06455        0.30923
B         -5.31647        1.76482        0.55670
B         -6.48736        0.81173        1.15077
B         -6.49551       -0.74093        1.13928
B          1.72781        0.83018       -0.86910
B         -0.28648       -1.39197        1.57008
B          0.26579       -1.70969       -0.95520
B          5.90044       -1.68240        0.67291
B          6.10443        0.02927        0.75077
B          5.91574        1.76017        0.76898
B         -0.38032        0.97509        0.05499
