45
isomer_3088.log	Energy: -112372.1346118
B          2.62091       -1.65325        0.34659
B          2.61273       -3.28312       -0.06701
B          1.20609       -4.10859       -0.32536
B         -0.25043       -3.28835        0.24331
B          1.16148       -0.76839        0.67211
B         -1.71314       -0.80081        0.75984
B         -1.64114       -4.06009       -0.46004
B          4.07916       -0.77724        0.28945
B         -1.63390       -2.39326        0.16634
B          4.01973       -2.45952       -0.20189
B         -0.21619       -4.72012       -0.61454
B         -3.07338       -3.21355       -0.45558
B         -3.09989       -1.60409        0.14405
B         -4.56043       -0.78187       -0.33434
B         -0.27978        1.75410        0.87726
B         -1.66326        2.46134        0.26689
B         -3.11960        1.65610        0.21158
B         -4.57021        0.83680       -0.30082
B         -4.41230        2.40017       -0.51388
B         -3.11270        3.28922       -0.32089
B         -1.69080        4.15246       -0.28994
B         -0.29069        3.36913        0.38120
B         -0.27397        4.83550       -0.41662
B          2.57225        3.41137        0.07165
B          1.15566        4.22976       -0.15265
B          2.60024        1.76599        0.41741
B          3.98906        2.61113       -0.09686
B          4.06895        0.91078        0.32442
B          1.16531        2.57804        0.59835
B          1.19596       -2.48939        0.49339
B         -3.19207       -0.08269        0.57237
B          1.15169        0.85083        0.70565
B         -4.38368       -2.33306       -0.61191
B          5.33860       -1.63649       -0.69031
B          5.32609       -0.01057       -0.42266
B          5.31766        1.82504       -0.61862
B          6.48813        0.88999       -1.24149
B          6.49752       -0.66238       -1.27364
B         -1.72309        0.84484        0.79393
B          0.39378        0.06604        0.53753
B         -0.25893       -1.69523        0.80582
B         -5.89676       -1.62690       -0.81001
B         -6.10224        0.08611       -0.83936
B         -5.91493        1.81700       -0.80930
B          0.11249       -2.19278        2.18855
