45
isomer_3089.log	Energy: -113372.5427079
B          2.44572       -1.58727        0.02591
B          2.37725       -3.28189       -0.51323
B          1.01100       -4.04167       -0.42318
B         -0.34544       -3.28415        0.42902
B          1.19465       -0.85635        0.78888
B         -2.15711       -0.62402        1.41069
B         -1.76209       -3.99795       -0.05182
B          3.88489       -0.93329       -0.16329
B         -1.80926       -2.40351        0.96584
B          3.71786       -2.46956       -0.68718
B         -0.41575       -4.63527       -0.39035
B         -3.03600       -3.07688       -0.03677
B         -3.21286       -1.55510        0.34343
B         -4.33611       -0.60702       -0.56585
B         -0.24526        1.65370        0.97533
B         -1.61804        2.55651        0.47302
B         -3.03651        1.85369        0.05929
B         -4.51097        1.04692       -0.32703
B         -4.09993        2.64507       -0.99815
B         -2.81313        3.41788       -0.41949
B         -1.39876        4.15333       -0.29071
B         -0.10962        3.30390        0.48907
B          0.04344        4.66551       -0.31781
B          2.71490        3.22518        0.24355
B          1.41169        4.03303        0.06230
B          2.67631        1.48485        0.81353
B          3.95944        2.33844        0.01918
B          4.01910        0.74443        0.25708
B          1.31762        2.35344        0.59318
B          1.24005       -2.55727        0.49083
B         -3.34535        0.19299        0.55209
B          1.23377        0.75125        1.14256
B         -4.25367       -2.28135       -0.82256
B          5.10292       -1.65820       -1.09390
B          5.27034       -0.11447       -0.39881
B          5.30454        1.56524       -0.51881
B          6.34117        0.73775       -1.31272
B          6.23969       -0.72801       -1.57389
B         -1.71715        0.90233        0.73877
B         -0.33303       -0.10246        1.36693
B         -0.07326       -1.87810        1.30839
B         -5.24007       -1.40234       -1.58534
B         -5.36891        0.16125       -1.67574
B         -5.08162        1.68744       -1.66720
B         -1.18644       -1.39800        2.28497
