45
isomer_0309.log	Energy: -111450.6288529
B         -2.60529       -1.65760       -0.46764
B         -2.60223       -3.29627       -0.09033
B         -1.19832       -4.13081        0.15330
B          0.26173       -3.30182       -0.39318
B         -1.14282       -0.76940       -0.76960
B          1.73193       -0.80711       -0.85050
B          1.64865       -4.09249        0.29649
B         -4.06152       -0.77939       -0.39488
B          1.64719       -2.41215       -0.29273
B         -4.00755       -2.47232        0.05912
B          0.22167       -4.75219        0.43255
B          3.08297       -3.24967        0.31458
B          3.11505       -1.62736       -0.24907
B          4.57632       -0.81965        0.25129
B          0.30519        1.75337       -0.91489
B          1.68877        2.44340       -0.28534
B          3.14297        1.63346       -0.24411
B          4.59018        0.79933        0.25376
B          4.43555        2.35798        0.50108
B          3.13866        3.25436        0.32448
B          1.71898        4.12166        0.30899
B          0.31875        3.35696       -0.38305
B          0.30350        4.80529        0.44710
B         -2.54490        3.39953       -0.08014
B         -1.12691        4.20917        0.16599
B         -2.57601        1.76231       -0.46244
B         -3.96412        2.59932        0.06684
B         -4.04707        0.90895       -0.39231
B         -1.13861        2.57456       -0.62153
B         -1.18201       -2.49386       -0.62924
B          3.21213       -0.09706       -0.64324
B         -1.12895        0.85013       -0.76714
B          4.39501       -2.37617        0.49388
B         -5.32569       -1.65702        0.56225
B         -5.30847       -0.02559        0.33082
B         -5.29605        1.80518        0.56752
B         -6.47048        0.85949        1.16640
B         -6.48377       -0.69318        1.16404
B          1.74603        0.83885       -0.84800
B         -0.81967       -0.73180        1.67233
B          0.27565       -1.69662       -0.92014
B          5.90929       -1.67840        0.71157
B          6.11891        0.03301        0.77950
B          5.93594        1.76460        0.78741
B         -0.49061       -0.51297       -1.11175
