45
isomer_3094.log	Energy: -113118.1357425
B          2.20443        1.99924       -0.35469
B          1.83073        3.39733        0.59794
B          0.35245        4.05120        0.47837
B         -0.84505        3.21474       -0.35952
B          0.94322        0.95860       -0.91645
B         -1.91054        0.58237       -0.94982
B         -2.40845        3.88414       -0.05436
B          3.71377        1.42586       -0.10226
B         -2.17842        2.22725       -0.71608
B          3.24640        2.85292        0.66216
B         -1.09632        4.57813        0.40435
B         -3.66648        2.93191       -0.33575
B         -3.56465        1.31770       -0.66985
B         -4.83906        0.27372       -0.44030
B         -0.22805       -0.76560       -0.97818
B         -1.03638       -1.93946        0.51184
B         -2.75513       -1.81656        0.09067
B         -4.39993       -1.17190        0.29076
B         -3.85549       -2.52315        1.22830
B         -2.32316       -2.97672        1.08599
B         -1.01929       -3.83689        0.79389
B          0.26031       -2.99559        0.07156
B          0.21349       -4.55845        0.33598
B          3.38259       -2.99747       -0.45546
B          1.52648       -4.11481       -0.42057
B          2.88283       -1.29358       -0.66374
B          4.40253       -1.82367       -0.11684
B          4.05346       -0.23150       -0.29964
B          1.62483       -2.25517       -0.54533
B          0.65897        2.44661       -0.24533
B         -3.36153       -0.43109       -0.85201
B          1.41698       -0.51903       -0.95801
B         -4.95767        1.98001        0.01480
B          4.79818        2.30360        0.88492
B          5.20749        0.85893        0.14774
B          5.55111       -0.81877        0.37177
B          6.44366        0.16780        1.06814
B          6.08535        1.57784        1.33614
B         -1.75041       -0.99011       -0.99464
B          2.41343       -3.55437       -1.40959
B         -0.62799        1.58111       -0.86979
B         -5.84034        0.91639        0.63940
B         -5.82594       -0.57690        0.97055
B         -5.27588       -1.96365        1.33663
B          0.55346       -1.37293        0.38632
