45
isomer_3095.log	Energy: -112898.3137363
B         -2.52165        1.76514        0.44598
B         -2.43177        3.41087        0.00688
B         -0.98308        4.16754       -0.16679
B          0.39050        3.38182        0.41695
B         -1.10532        0.94689        0.80806
B          1.74885        0.85631        0.92008
B          1.81814        4.10900       -0.29590
B         -3.97228        0.96469        0.34291
B          1.75394        2.46558        0.35943
B         -3.82663        2.58095       -0.18456
B          0.40539        4.73497       -0.45264
B          3.13843        3.22810       -0.30286
B          3.16275        1.65344        0.23123
B          4.50765        0.79232       -0.28016
B          0.29517       -1.82189        0.85724
B          1.65480       -2.53207        0.20543
B          3.06118       -1.71223        0.17685
B          4.42669       -0.85537       -0.30625
B          4.36406       -2.50586       -0.70184
B          2.90094       -3.26105       -0.45334
B          1.45954       -4.11653       -0.46813
B          0.11918       -3.35119        0.29171
B          0.03137       -4.67385       -0.55825
B         -2.77890       -3.24672        0.06426
B         -1.37124       -4.05344       -0.18220
B         -2.74767       -1.57841        0.43035
B         -4.12658       -2.35879       -0.10801
B         -4.08232       -0.71914        0.36148
B         -1.41391       -2.54634        0.51278
B         -1.12299        2.59465        0.62654
B          3.21117        0.03239        0.56596
B         -1.83004       -0.35282        0.64686
B          4.52417        2.47795       -0.59772
B         -5.09670        1.87559       -0.70262
B         -5.21903        0.20045       -0.42837
B         -5.34475       -1.50860       -0.62703
B         -6.40518       -0.50943       -1.24166
B         -6.30410        0.99511       -1.29703
B          1.75601       -0.79661        0.94219
B         -0.67919       -0.99539       -0.06446
B          0.39844        1.73930        0.96862
B          5.73516        1.55671       -0.91383
B          5.83866       -0.02352       -0.95401
B          5.60301       -1.63216       -0.99182
B          1.05813       -1.37836        2.09770
