45
isomer_3096.log	Energy: -113675.8834063
B          2.56441       -1.72955        0.53203
B          2.51576       -3.30344       -0.03641
B          1.15985       -4.14915       -0.10706
B         -0.26711       -3.40343        0.54051
B          1.17140       -0.85133        1.06924
B         -1.71609       -0.84334        0.78222
B         -1.63931       -4.17091       -0.25759
B          3.98473       -0.84400        0.22463
B         -1.72218       -2.55197        0.42921
B          3.87043       -2.48362       -0.27622
B         -0.21659       -4.74820       -0.35159
B         -3.00646       -3.34287       -0.27820
B         -3.12733       -1.73478        0.21901
B         -4.54691       -0.89664       -0.14292
B         -0.37097        1.82464        1.11828
B         -1.80381        2.53199        0.49030
B         -3.17460        1.67950        0.26147
B         -4.53061        0.79503       -0.24203
B         -4.40826        2.44331       -0.74904
B         -3.09430        3.27960       -0.26485
B         -1.75093        4.14415       -0.24445
B         -0.35341        3.38433        0.51421
B         -0.34471        4.74605       -0.35082
B          2.42533        3.33589       -0.03894
B          1.04506        4.15734       -0.12243
B          2.50734        1.75973        0.48649
B          3.80821        2.53874       -0.29262
B          3.95587        0.91234        0.21608
B          1.11759        2.59032        0.76494
B          1.18768       -2.57743        0.78936
B         -3.29335       -0.01677        0.60913
B          1.12812        0.84848        1.03989
B         -4.32374       -2.50153       -0.77082
B          5.10482       -1.64935       -0.84539
B          5.19449        0.04687       -0.52406
B          5.05921        1.74118       -0.86537
B          6.08326        0.81698       -1.61390
B          6.10459       -0.70353       -1.60632
B         -1.78929        0.83036        0.91594
B          2.60963        0.01670        0.74701
B         -0.31161       -1.83024        1.08621
B         -5.36920       -1.57062       -1.33958
B         -5.61918       -0.03497       -1.30578
B         -5.47497        1.51725       -1.30137
B         -0.34285       -0.00310        1.09155
