45
isomer_3099.log	Energy: -113382.7667824
B          2.33353        1.83107       -0.51403
B          2.45070        3.56686       -0.30311
B          1.10652        4.33236       -0.34858
B         -0.36256        3.58622       -0.88877
B          1.06604        1.06953       -1.22019
B         -1.60843        0.92978       -0.93067
B         -1.69186        4.24336        0.04167
B          3.50073        1.04601        0.23148
B         -1.71471        2.61248       -0.62968
B          3.61467        2.69275        0.20363
B         -0.29824        4.87677        0.03098
B         -3.00944        3.33376        0.21368
B         -2.99046        1.73345       -0.16348
B         -4.20918        0.74384        0.49376
B         -0.30389       -1.74795       -1.58371
B         -1.20610       -2.41042       -0.04154
B         -2.71517       -1.64744       -0.01427
B         -4.18662       -0.91206        0.28095
B         -3.91874       -2.46656        0.95243
B         -2.60305       -3.26362        0.39929
B         -1.39135       -4.14494       -0.03453
B         -0.26392       -3.37375       -1.25610
B          0.00668       -4.71371       -0.30176
B          2.49351       -3.15676       -0.46521
B          1.38453       -4.21490       -0.71886
B          2.00436       -1.46587       -0.10362
B          3.55270       -2.24458        0.30759
B          3.37717       -0.64829        0.35160
B          1.26289       -2.33514       -1.40415
B          1.10313        2.70312       -1.09546
B         -2.92324       -0.00886       -0.38295
B          0.94132       -0.52707       -1.05960
B         -4.24186        2.44644        0.78838
B          4.83958        1.82678        0.93430
B          4.46171        0.21698        1.25222
B          4.71960       -1.48087        1.08388
B          5.86627       -0.58086        1.59778
B          5.91941        0.90717        1.55337
B         -1.21376       -0.66709       -0.64124
B          0.70805       -2.99319        0.23873
B         -0.37995        1.90616       -1.35306
B         -5.29192        1.47511        1.38100
B         -5.36888       -0.07488        1.44231
B         -5.02474       -1.58529        1.48433
B          0.20497       -1.41588        0.19122
