45
isomer_0031.log	Energy: -112699.2121002
B          2.58203        1.70313       -0.47001
B          2.58521        3.35800       -0.08902
B          1.18189        4.19038        0.12998
B         -0.24793        3.38728       -0.39836
B          1.18243        0.92900       -0.75177
B         -1.72749        0.85571       -0.82873
B         -1.62425        4.15919        0.28467
B          3.97802        0.81261       -0.40607
B         -1.64551        2.49457       -0.28786
B          3.90460        2.48317        0.03825
B         -0.21649        4.75410        0.39840
B         -3.03460        3.30814        0.30467
B         -3.09977        1.69092       -0.23462
B         -4.55979        0.84751        0.23869
B         -0.38469       -1.84419       -0.93842
B         -1.75237       -2.47444       -0.27563
B         -3.14710       -1.65171       -0.22859
B         -4.56903       -0.78825        0.24213
B         -4.47891       -2.37660        0.52967
B         -3.12480       -3.26777        0.32488
B         -1.73015       -4.13282        0.31788
B         -0.32146       -3.40044       -0.38488
B         -0.33756       -4.75090        0.42174
B          2.55816       -3.39853       -0.08275
B          1.10877       -4.21082        0.14846
B          2.64418       -1.75041       -0.46780
B          3.94800       -2.54149        0.05780
B          3.99589       -0.91225       -0.39855
B          1.21035       -2.62982       -0.61275
B          1.20434        2.58671       -0.63008
B         -3.20988        0.10603       -0.62561
B          1.36736       -0.81760       -0.75324
B         -4.43295        2.44043        0.51609
B          5.19592        1.66026        0.53395
B          5.18590        0.02582        0.30111
B          5.20566       -1.70410        0.53111
B          6.28371       -0.79531        1.10842
B          6.31771        0.72353        1.12289
B         -1.76697       -0.81312       -0.81957
B          1.50130        0.31408        1.51103
B         -0.25583        1.79326       -0.90542
B         -5.78770        1.60171        0.68593
B         -5.98094        0.01414        0.72802
B         -5.82063       -1.58884        0.73521
B          0.11539       -0.39028       -0.62127
