45
isomer_0310.log	Energy: -113373.2399600
B         -2.50574       -1.67756       -0.49685
B         -2.45983       -3.28196        0.00833
B         -1.06383       -4.08203        0.22180
B          0.36968       -3.32578       -0.30364
B         -1.07072       -0.96791       -1.36208
B          1.74116       -0.81779       -0.78045
B          1.74021       -4.12265        0.34064
B         -3.97276       -0.88441       -0.18457
B          1.79460       -2.50320       -0.49218
B         -3.83089       -2.48419        0.28601
B          0.33815       -4.69196        0.51115
B          3.11575       -3.27655        0.26643
B          3.20550       -1.71307       -0.18403
B          4.62702       -0.82812        0.12378
B          0.39558        1.72562       -0.95505
B          1.79113        2.50482       -0.48939
B          3.20238        1.71608       -0.18064
B          4.62477        0.83238        0.12750
B          4.45415        2.47254        0.68458
B          3.11050        3.27843        0.27246
B          1.73386        4.12283        0.34499
B          0.36533        3.32658       -0.30509
B          0.33120        4.69106        0.51253
B         -2.46460        3.28009        0.00227
B         -1.06969        4.08045        0.21943
B         -2.50767        1.67477       -0.50054
B         -3.83458        2.48137        0.28065
B         -3.97433        0.88048       -0.18683
B         -1.10683        2.51798       -0.54056
B         -1.10349       -2.51803       -0.53537
B          3.23966        0.00183       -0.52511
B         -1.07089        0.96561       -1.36271
B          4.45846       -2.46933        0.67907
B         -5.01917       -1.70606        0.94494
B         -5.01150       -0.00165        0.80702
B         -5.02222        1.70299        0.94013
B         -6.08535        0.75157        1.69330
B         -6.08374       -0.75442        1.69574
B          1.74040        0.82008       -0.78161
B         -2.71565       -0.00170       -1.01744
B          0.39702       -1.72434       -0.95271
B          5.57301       -1.54180        1.17570
B          5.76879        0.00233        1.16032
B          5.57082        1.54623        1.17905
B         -1.71565       -0.00158       -2.34096
