45
isomer_3100.log	Energy: -112923.1227800
B         -2.70104       -1.67248       -0.35427
B         -2.60520       -3.30796       -0.04843
B         -1.20729       -4.17592        0.17216
B          0.20314       -3.37874       -0.35392
B         -1.22589       -0.68744       -0.81841
B          1.72221       -0.85367       -0.80107
B          1.59562       -4.15207        0.27542
B         -4.07609       -0.75322       -0.36977
B          1.60571       -2.50603       -0.25588
B         -4.06123       -2.40637        0.11014
B          0.20722       -4.77759        0.41711
B          2.98606       -3.30037        0.28258
B          3.05281       -1.73577       -0.23088
B          4.53275       -0.91885        0.20553
B          0.62185        2.00641       -0.87294
B          1.92636        2.58848       -0.17727
B          3.21502        1.70782       -0.20338
B          4.57155        0.76970        0.21456
B          4.62676        2.39306        0.58796
B          3.23167        3.30097        0.41149
B          1.80370        4.21359        0.45231
B          0.42729        3.44694       -0.30708
B          0.37889        4.76408        0.52007
B         -2.44776        3.37669       -0.07296
B         -1.04306        4.13838        0.16270
B         -2.65439        1.75267       -0.49361
B         -3.95419        2.59301        0.05364
B         -4.04128        0.97360       -0.38455
B         -1.15346        2.56993       -0.57036
B         -1.25314       -2.61664       -0.54364
B          3.20113       -0.09614       -0.59701
B         -1.53052        0.72447       -0.77161
B          4.42174       -2.56787        0.48659
B         -5.35258       -1.61053        0.55927
B         -5.31498        0.07875        0.31086
B         -5.27833        1.81277        0.52425
B         -6.44338        0.88543        1.11993
B         -6.49632       -0.61929        1.13608
B          1.83237        0.81192       -0.82135
B         -1.23884       -1.38210        0.62474
B          0.24108       -1.70697       -0.82824
B          5.78537       -1.75803        0.63295
B          5.99292       -0.15814        0.67693
B          5.87875        1.46883        0.73387
B          0.01698        0.76471       -0.79450
