45
isomer_3102.log	Energy: -112697.7636452
B         -2.61493        1.72808        0.40215
B         -2.60303        3.36476        0.01649
B         -1.19449        4.19134       -0.22763
B          0.26012        3.35819        0.32698
B         -1.15753        0.83447        0.71254
B          1.71714        0.85886        0.80094
B          1.65263        4.13869       -0.36301
B         -4.07515        0.85648        0.32997
B          1.64157        2.46141        0.23477
B         -4.01187        2.54678       -0.13251
B          0.22919        4.80450       -0.50625
B          3.08295        3.28896       -0.37297
B          3.10576        1.66941        0.19904
B          4.56447        0.85219       -0.29329
B          0.27799       -1.69442        0.87457
B          1.65991       -2.39425        0.25225
B          3.11808       -1.59149        0.21077
B          4.57058       -0.76683       -0.28747
B          4.40914       -2.32597       -0.52725
B          3.10752       -3.21524       -0.34956
B          1.68366       -4.07566       -0.33344
B          0.28528       -3.30075        0.35094
B          0.26530       -4.75322       -0.47185
B         -2.57773       -3.33120        0.04059
B         -1.16298       -4.14884       -0.19761
B         -2.60201       -1.69192        0.41446
B         -3.99271       -2.52498       -0.11426
B         -4.06878       -0.83191        0.33605
B         -1.16895       -2.51020        0.58153
B         -1.18810        2.55835        0.56329
B          3.19446        0.14070        0.60126
B         -1.15142       -0.78510        0.71837
B          4.39126        2.40830       -0.54429
B         -5.33256        1.73523       -0.63500
B         -5.32377        0.10493       -0.39521
B         -5.31948       -1.72706       -0.62254
B         -6.48778       -0.77884       -1.22938
B         -6.49364        0.77386       -1.23497
B          1.72336       -0.78714        0.80686
B         -0.29206       -1.19007       -0.47222
B          0.26496        1.75566        0.86215
B          5.90275        1.70220       -0.75438
B          6.10435       -0.01051       -0.81302
B          5.91311       -1.74123       -0.81259
B         -0.30659        0.04349        2.05472
