45
isomer_3103.log	Energy: -113349.9001055
B          2.65005        1.64671       -0.57620
B          2.62414        3.38133       -0.03467
B          1.28631        4.19754       -0.12725
B         -0.17794        3.34888       -0.67448
B          1.29340        0.85091       -0.89827
B         -1.70986        0.74916       -1.01388
B         -1.55602        4.27250       -0.17536
B          3.87928        0.87896        0.05437
B         -1.65984        2.54203       -0.69825
B          3.86259        2.50947        0.30824
B         -0.13498        4.82645       -0.05110
B         -2.91875        3.41854       -0.07887
B         -3.06149        1.78042       -0.39013
B         -4.39270        0.94632        0.29325
B         -0.13137       -1.67201       -1.49586
B         -2.02948       -2.77266       -0.63748
B         -3.06502       -1.68681        0.08572
B         -4.10682       -0.59439        0.81329
B         -4.05017       -2.22043        1.38270
B         -2.87957       -3.16704        0.74203
B         -1.59822       -4.03877        0.43225
B         -0.40389       -3.33501       -0.92357
B         -0.27397       -4.63876        0.13986
B          2.48227       -3.25655       -0.06027
B          1.06247       -4.07274       -0.13018
B          2.58276       -1.62706       -0.56701
B          3.78938       -2.43594        0.31466
B          3.89547       -0.84656        0.00027
B          1.16350       -2.48383       -0.64534
B          1.24116        2.46856       -0.39943
B         -3.21417        0.00750       -0.49469
B          1.17816       -0.79445       -0.88566
B         -4.13236        2.63349        0.63091
B          5.08433        1.64923        0.98372
B          5.17125        0.01319        0.56826
B          5.10860       -1.65439        0.92077
B          6.13276       -0.76927        1.65575
B          6.09580        0.72498        1.71811
B         -1.95014       -0.96879       -1.24550
B         -0.24711        0.01511       -1.20947
B         -0.24049        1.69890       -0.91789
B         -5.00508        1.77889        1.51912
B         -5.20360        0.28681        1.80398
B         -5.01737       -1.22816        1.97451
B         -1.42325       -2.36223       -2.01099
