45
isomer_3104.log	Energy: -113458.2544509
B          2.55546        1.73089       -0.65921
B          2.46936        3.41418        0.09188
B          1.09096        4.15938        0.19800
B         -0.33210        3.36819       -0.39724
B          1.22504        0.93836       -1.04535
B         -1.74083        0.85493       -0.85868
B         -1.76518        4.13461        0.21321
B          3.93596        0.98897       -0.21677
B         -1.80249        2.54617       -0.60301
B          3.74131        2.56351        0.27007
B         -0.35354        4.72117        0.42077
B         -3.11808        3.28289        0.16150
B         -3.15150        1.67623       -0.28673
B         -4.54976        0.73721       -0.00512
B         -0.29178       -1.81338       -1.48127
B         -1.34499       -2.34957        0.15328
B         -2.97254       -1.80159       -0.18553
B         -4.32437       -0.87292        0.36032
B         -4.16661       -2.51373        0.85616
B         -2.80287       -3.27304        0.45572
B         -1.46781       -4.09798        0.23464
B         -0.19790       -3.32341       -0.77959
B         -0.07783       -4.64448        0.18161
B          2.62319       -3.24394        0.00787
B          1.32147       -4.06102       -0.05423
B          2.64339       -1.53822       -0.56560
B          3.90321       -2.35496        0.18671
B          3.98414       -0.78033       -0.27758
B          1.19166       -2.38549       -0.38374
B          1.14654        2.51016       -0.42104
B         -3.18280       -0.08116       -0.59067
B          1.22115       -0.75509       -0.92073
B         -4.45120        2.41822        0.53597
B          5.06127        1.74097        0.78630
B          5.21845        0.13002        0.32959
B          5.22861       -1.53348        0.69678
B          6.22494       -0.64515        1.40865
B          6.12101        0.83894        1.49469
B         -1.67709       -0.91915       -0.97184
B         -0.25022        0.00529       -1.08531
B         -0.32496        1.78479       -0.96980
B         -5.47554        1.45145        1.08119
B         -5.61153       -0.10861        1.18222
B         -5.36203       -1.63973        1.27323
B         -0.11157       -1.26008        0.17865
