45
isomer_3105.log	Energy: -110241.2813888
B         -2.61159        1.71591        0.36778
B         -2.59889        3.35354       -0.01380
B         -1.18998        4.17984       -0.25671
B          0.26444        3.34439        0.29493
B         -1.15457        0.82061        0.67505
B          1.72017        0.84298        0.76176
B          1.65702        4.12574       -0.39394
B         -4.07241        0.84541        0.29431
B          1.64527        2.44698        0.19964
B         -4.00834        2.53682       -0.16398
B          0.23392        4.79280       -0.53466
B          3.08680        3.27514       -0.40690
B          3.10894        1.65415        0.16104
B          4.56683        0.83725       -0.33421
B          0.27946       -1.70958        0.82989
B          1.66056       -2.40872        0.20498
B          3.11921       -1.60677        0.16463
B          4.57193       -0.78179       -0.33243
B          4.40936       -2.34022       -0.57601
B          3.10729       -3.22911       -0.39975
B          1.68290       -4.08867       -0.38491
B          0.28542       -3.31460        0.30225
B          0.26403       -4.76499       -0.52415
B         -2.57779       -3.34247       -0.00643
B         -1.16371       -4.16041       -0.24754
B         -2.60082       -1.70411        0.37154
B         -3.99236       -2.53498       -0.15841
B         -4.06709       -0.84300        0.29617
B         -1.16817       -2.52371        0.53570
B         -1.18413        2.54487        0.53013
B          3.19692        0.12439        0.55940
B         -1.14947       -0.79898        0.67684
B          4.39445        2.39409       -0.58122
B         -5.32985        1.72736       -0.66770
B         -5.32193        0.09646       -0.43198
B         -5.31894       -1.73496       -0.66389
B         -6.48701       -0.78449       -1.26764
B         -6.49190        0.76822       -1.26935
B          1.72536       -0.80304        0.76357
B         -0.72199       -0.69425        0.36082
B          0.26859        1.74053        0.82610
B          5.90537        1.68757       -0.79399
B          6.10585       -0.02512       -0.85703
B          5.91353       -1.75572       -0.86080
B          0.03732        0.09466        2.95088
