45
isomer_3108.log	Energy: -113215.6661351
B          2.60169       -1.62029        0.83910
B          2.57196       -3.08104       -0.30448
B          1.25632       -3.76849       -0.67729
B         -0.15825       -3.02374       -0.15745
B          1.06196       -0.55075        0.63785
B         -1.47683       -0.72591        0.87040
B         -1.45048       -4.06450       -0.33792
B          3.95116       -0.72903        0.44494
B         -1.49685       -2.31899        0.33448
B          3.89796       -2.26679       -0.12514
B         -0.08875       -4.50711       -0.70683
B         -2.82111       -3.23152       -0.29375
B         -3.04323       -1.76044        0.35345
B         -4.37844       -0.88462       -0.14525
B         -0.35579        1.87704        0.99501
B         -1.83024        2.57587        0.53148
B         -3.18420        1.66940        0.34881
B         -4.59825        0.72899        0.15818
B         -4.55622        2.37609       -0.43403
B         -3.19586        3.23033       -0.19015
B         -1.81153        4.07321       -0.40283
B         -0.40495        3.48580        0.37497
B         -0.43761        4.63726       -0.72398
B          2.38327        3.28905       -0.37208
B          1.00284        4.09795       -0.50127
B          2.46283        1.70022        0.39788
B          3.73707        2.48122       -0.36314
B          3.87409        0.97740        0.28836
B          1.07232        2.62668        0.41813
B          1.23802       -2.09750       -0.22995
B         -3.15654       -0.02701        0.64312
B          1.00706        1.01262        0.84876
B         -4.29495       -2.53475       -0.53036
B          5.26716       -1.46256       -0.39046
B          5.30187        0.18509        0.04638
B          5.17435        1.75913       -0.59808
B          6.34546        0.91782       -1.07136
B          6.37936       -0.55217       -1.00811
B         -1.74493        0.85957        0.85690
B          1.24360       -1.86663        1.62869
B         -0.20850       -1.72978        1.46870
B         -5.51075       -1.71832       -0.92386
B         -5.76769       -0.18629       -0.89252
B         -5.63942        1.40363       -0.88931
B         -0.21900       -1.25616       -0.21596
