45
isomer_3109.log	Energy: -113389.5582979
B          2.35061       -1.96194        0.36002
B          2.25803       -3.50559        0.04707
B          0.82779       -4.04560       -0.15321
B         -0.56713       -3.42062        0.59849
B          1.71319       -0.59412        0.64334
B         -1.72739       -0.76714        0.82627
B         -1.99538       -4.02344       -0.27945
B          3.83983       -1.04493        0.20832
B         -2.04927       -2.52639        0.59626
B          3.66760       -2.67376       -0.29260
B         -0.59056       -4.56694       -0.49524
B         -3.34778       -3.17944       -0.19506
B         -3.30875       -1.57791        0.26886
B         -4.60289       -0.61441       -0.09984
B         -0.22286        1.78405        1.15825
B         -1.54589        2.52084        0.36830
B         -2.97156        1.81314        0.10339
B         -4.41167        1.01389       -0.29746
B         -4.24589        2.65865       -0.75680
B         -2.82867        3.37497       -0.32834
B         -1.40851        4.13124       -0.30581
B         -0.12759        3.40940        0.60074
B          0.01714        4.65433       -0.41875
B          2.71205        3.21449        0.13095
B          1.38312        4.06663       -0.08102
B          2.70177        1.68878        0.85239
B          4.02804        2.37354       -0.19438
B          4.06569        0.75169        0.32024
B          1.30418        2.51849        0.65514
B          0.89996       -2.44211        0.61479
B         -3.17139        0.11654        0.45180
B          1.05412        0.82015        0.93629
B         -4.65442       -2.27624       -0.61588
B          4.84525       -1.88140       -0.94734
B          4.99156       -0.17375       -0.74283
B          5.15249        1.51996       -0.82583
B          6.11365        0.48760       -1.64245
B          5.95742       -1.01082       -1.68880
B         -1.56944        0.82718        0.77120
B          2.93290        0.07439        1.24646
B         -0.60728       -1.92553        1.28754
B         -5.62644       -1.25918       -1.15720
B         -5.73306        0.30270       -1.17206
B         -5.44997        1.82624       -1.19385
B         -0.05260       -0.47762        0.83808
