45
isomer_3110.log	Energy: -113675.8869273
B          2.56271       -1.73068        0.52997
B          2.51283       -3.30380       -0.03714
B          1.15572       -4.14903       -0.10961
B         -0.26965       -3.40267        0.53818
B          1.16976       -0.85067        1.06820
B         -1.71831       -0.84332        0.78941
B         -1.64280       -4.16935       -0.25867
B          3.98405       -0.84590        0.22492
B         -1.72527       -2.55115        0.43146
B          3.86911       -2.48539       -0.27608
B         -0.22088       -4.74786       -0.35354
B         -3.00924       -3.33991       -0.27847
B         -3.12935       -1.73281        0.22137
B         -4.54681       -0.89330       -0.14592
B         -0.36870        1.82528        1.11683
B         -1.80142        2.53266        0.48821
B         -3.17321        1.68083        0.26012
B         -4.53243        0.79861       -0.23655
B         -4.40634        2.44487       -0.74947
B         -3.09129        3.28094       -0.26600
B         -1.74727        4.14434       -0.24644
B         -0.35028        3.38488        0.51434
B         -0.34066        4.74565       -0.35254
B          2.42822        3.33433       -0.04023
B          1.04839        4.15697       -0.12335
B          2.50960        1.75948        0.48870
B          3.81036        2.53667       -0.29251
B          3.95670        0.90986        0.21596
B          1.11982        2.58988        0.76518
B          1.18526       -2.57773        0.78860
B         -3.29377       -0.01572        0.60942
B          1.13011        0.84876        1.04233
B         -4.32711       -2.49903       -0.77034
B          5.10404       -1.65244       -0.84548
B          5.19562        0.04372       -0.52270
B          5.06118        1.73800       -0.86436
B          6.08470        0.81311       -1.61269
B          6.10474       -0.70765       -1.60554
B         -1.78572        0.83047        0.91051
B          2.60983        0.01581        0.74630
B         -0.31327       -1.83082        1.08776
B         -5.37403       -1.56921       -1.33793
B         -5.61984       -0.03282       -1.30470
B         -5.47236        1.51896       -1.30194
B         -0.34276       -0.00281        1.09447
