45
isomer_3112.log	Energy: -113519.1261036
B          2.42284       -1.80366        0.64509
B          2.19865       -3.02371       -0.51218
B          0.83818       -3.67226       -0.83024
B         -0.29877       -3.36026        0.49830
B          2.59521       -0.00520        0.90867
B         -1.80084       -0.77508        0.77538
B         -1.95173       -4.03018       -0.26212
B          3.95880       -0.95242        0.40733
B         -1.82177       -2.48474        0.37969
B          3.68770       -2.38953       -0.39485
B         -0.60391       -4.24819       -0.86648
B         -3.26765       -3.20068       -0.08079
B         -3.24446       -1.59652        0.38215
B         -4.63882       -0.65847        0.05110
B         -0.28387        1.65704        0.73179
B         -1.66193        2.48397        0.23640
B         -3.15846        1.79052        0.21189
B         -4.65458        1.01024        0.22283
B         -4.41797        2.63829       -0.54291
B         -3.02171        3.36757       -0.30665
B         -1.58152        4.11503       -0.47719
B         -0.21743        3.32439        0.19040
B         -0.14311        4.66046       -0.64168
B          2.64323        3.25757       -0.02338
B          1.25125        4.04707       -0.31074
B          2.63572        1.66281        0.58278
B          4.01797        2.45218       -0.05068
B          4.07174        0.82761        0.52307
B          1.23459        2.47922        0.46416
B          0.73540       -2.02572       -0.44351
B         -3.26857        0.13106        0.70295
B          1.15543        0.83271        0.90013
B         -4.61503       -2.29547       -0.42765
B          5.07108       -1.71803       -0.66686
B          5.32061       -0.09764       -0.12944
B          5.31299        1.61947       -0.41548
B          6.36129        0.67416       -1.09501
B          6.25312       -0.81696       -1.22588
B         -1.66828        0.83261        0.59140
B          1.06073       -0.85248        0.83736
B         -0.39715       -1.61815        0.86582
B         -5.76987       -1.38633       -0.78923
B         -5.87245        0.19332       -0.82129
B         -5.56821        1.68900       -0.91604
B          1.10157       -2.73463        1.12161
