45
isomer_3114.log	Energy: -113411.6132641
B          2.59860        1.76831       -0.70480
B          2.52126        3.43971        0.02141
B          1.14481        4.16353        0.16533
B         -0.29886        3.38727       -0.38197
B          1.25188        0.98566       -1.18534
B         -1.76707        0.94954       -0.90849
B         -1.71205        4.13758        0.29650
B          3.94145        1.02611       -0.19740
B         -1.81972        2.61848       -0.51155
B          3.80374        2.61101        0.20106
B         -0.28533        4.71903        0.46157
B         -3.11027        3.33466        0.26324
B         -3.14834        1.71619       -0.25482
B         -4.54357        0.85076        0.18801
B         -0.29597       -1.54494       -0.97635
B         -1.71214       -2.48509       -0.52242
B         -3.16054       -1.65678       -0.38586
B         -4.53470       -0.87042        0.16330
B         -4.32482       -2.45384        0.73373
B         -2.93711       -3.21458        0.32119
B         -1.56718       -3.99565        0.24560
B         -0.18916       -3.24907       -0.59571
B         -0.09296       -4.50963        0.50008
B          2.48999       -3.15928        0.15943
B          1.25315       -3.90999        0.88041
B          2.51999       -1.43844       -0.45959
B          3.81059       -2.28516        0.28511
B          3.89809       -0.71486       -0.09026
B          1.27247       -2.37650       -0.95906
B          1.19137        2.56381       -0.56792
B         -3.26670        0.01310       -0.62566
B          1.26047       -0.68613       -1.10472
B         -4.40541        2.48116        0.72070
B          5.14363        1.79715        0.72266
B          5.22207        0.15748        0.34458
B          5.13739       -1.48681        0.81519
B          6.18089       -0.58589        1.47116
B          6.18057        0.90925        1.44582
B         -1.76605       -0.80573       -1.00706
B          1.23173       -4.02342       -0.69537
B         -0.31241        1.80331       -1.00858
B         -5.46129        1.52093        1.29746
B         -5.63062       -0.02994        1.26604
B         -5.42843       -1.57832        1.29162
B         -0.28345        0.10646       -1.11827
