45
isomer_3115.log	Energy: -113458.7397755
B         -2.54918        1.66090        0.63234
B         -2.53822        3.38243        0.05269
B         -1.18925        4.14580       -0.02482
B          0.27322        3.43514        0.64646
B         -1.20344        0.93625        1.06938
B          1.74946        0.92412        0.98781
B          1.64740        4.15813       -0.20242
B         -3.90640        0.91362        0.15179
B          1.71035        2.56888        0.47643
B         -3.79866        2.51558       -0.20248
B          0.22394        4.70776       -0.31953
B          3.01527        3.32167       -0.26930
B          3.08793        1.74580        0.22397
B          4.36294        0.78817       -0.39230
B          0.29030       -1.73822        1.46199
B          1.40411       -2.41208        0.03852
B          3.00081       -1.72000        0.11147
B          4.46309       -0.86776       -0.10767
B          4.20659       -2.50043       -0.76606
B          2.87189       -3.28478       -0.30708
B          1.55463       -4.13919       -0.01485
B          0.23312       -3.33213        0.93828
B          0.18031       -4.71515        0.06888
B         -2.52409       -3.31233       -0.04947
B         -1.22666       -4.12505        0.18417
B         -2.56867       -1.60820        0.44209
B         -3.80478       -2.45035       -0.31199
B         -3.89331       -0.85190        0.10461
B         -1.08743       -2.40846        0.26241
B         -1.20179        2.57639        0.74513
B          3.15336       -0.00041        0.50664
B         -1.21609       -0.74334        0.84322
B          4.33509        2.46486       -0.76356
B         -5.09332        1.69027       -0.77197
B         -5.15485        0.03671       -0.44550
B         -5.11984       -1.60836       -0.86694
B         -6.13444       -0.69975       -1.55211
B         -6.12786        0.79676       -1.51919
B          1.58564       -0.75858        0.53296
B          0.24775        0.00441        1.23977
B          0.32568        1.81912        1.20778
B          5.42848        1.53722       -1.27696
B          5.57349       -0.03955       -1.27087
B          5.31292       -1.56142       -1.26511
B          0.10052       -1.25255       -0.22859
