45
isomer_3116.log	Energy: -113407.7097253
B          2.45355        1.81767       -0.54749
B          2.38332        3.48615       -0.03092
B          1.01508        4.27563        0.05854
B         -0.37913        3.44484       -0.51633
B          1.18187        0.95850       -1.14601
B         -1.75256        0.87891       -0.90261
B         -1.76763        4.19987        0.24818
B          3.79639        1.06964       -0.04475
B         -1.79719        2.58813       -0.54212
B          3.69993        2.67354        0.23292
B         -0.38757        4.83574        0.31633
B         -3.09101        3.29180        0.30761
B         -3.10533        1.69922       -0.15544
B         -4.46454        0.75404        0.30286
B         -0.28009       -1.68725       -1.18761
B         -1.61719       -2.49874       -0.58292
B         -3.03478       -1.70635       -0.17308
B         -4.48064       -0.91452        0.06788
B         -4.21897       -2.53485        0.72954
B         -2.85164       -3.32119        0.29090
B         -1.48405       -4.04224        0.26580
B         -0.13251       -3.29579       -0.65674
B         -0.00600       -4.53992        0.45649
B          2.52628       -3.15318        0.11088
B          1.36017       -3.97866        0.84889
B          2.52908       -1.47017       -0.56574
B          3.80864       -2.24945        0.27188
B          3.82559       -0.66868       -0.06322
B          1.30106       -2.40230       -1.09024
B          1.10666        2.69337       -0.81429
B         -3.21185       -0.01497       -0.55944
B          1.25004       -0.69462       -1.20957
B         -4.36374        2.41238        0.80874
B          5.01294        1.87271        0.84262
B          5.10117        0.23019        0.46245
B          5.09493       -1.42185        0.84664
B          6.11012       -0.51155        1.53664
B          6.06386        0.99112        1.54639
B         -1.63234       -0.77897       -0.77906
B          1.30200       -4.05213       -0.72612
B         -0.36349        1.91394       -1.17040
B         -5.41979        1.44790        1.35998
B         -5.55680       -0.10017        1.32056
B         -5.27252       -1.61864        1.29653
B         -0.25131        0.12091       -1.06515
