45
isomer_3118.log	Energy: -113405.9706770
B          2.59470       -1.65573        0.70542
B          2.51023       -3.30468        0.02081
B          1.24514       -4.19744       -0.03807
B         -0.19235       -3.38324        0.38395
B          1.93589       -0.12960        0.75898
B         -1.60456       -0.80551        0.65826
B         -1.59826       -4.18927       -0.29053
B          3.73370       -0.82403        0.01683
B         -1.68785       -2.56760        0.35838
B          3.82828       -2.46019       -0.17719
B         -0.20298       -4.81342       -0.27918
B         -2.98115       -3.34428       -0.31978
B         -3.06555       -1.73580        0.14167
B         -4.48914       -0.87381       -0.09731
B         -0.40118        1.93566        1.22750
B         -1.70912        2.53918        0.44541
B         -3.05481        1.69575        0.15014
B         -4.38946        0.75512       -0.33203
B         -4.34242        2.40297       -0.77965
B         -3.02817        3.26320       -0.29862
B         -1.69370        4.15466       -0.26757
B         -0.37445        3.56909        0.67823
B         -0.29380        4.74813       -0.38171
B          2.44961        3.44329        0.04801
B          1.14004        4.28661       -0.04664
B          2.42078        1.70246        0.54088
B          3.68679        2.49706       -0.27812
B          3.70680        0.88524        0.01387
B          1.13398        2.79610        0.77314
B          1.22816       -2.66561        0.83066
B         -3.10549       -0.01847        0.46430
B          0.97228        1.20647        1.01104
B         -4.30792       -2.50634       -0.75211
B          4.95489       -1.66480       -0.98808
B          4.90286        0.02590       -0.75539
B          4.94308        1.72405       -0.90788
B          5.99881        0.80811       -1.61259
B          5.94599       -0.69751       -1.73582
B         -1.56170        0.82973        0.87093
B          0.24073       -0.24845        1.22382
B         -0.37537       -1.78222        0.94481
B         -5.36023       -1.55957       -1.25440
B         -5.60608       -0.04766       -1.23037
B         -5.46396        1.48524       -1.22304
B          1.31691       -1.27879        1.77905
