45
isomer_0312.log	Energy: -113347.3071397
B          2.57685       -1.56526        0.58328
B          2.58332       -3.23812       -0.14761
B          1.24402       -4.02774       -0.33066
B         -0.22227       -3.40749        0.44550
B          1.18640       -0.83289        0.96454
B         -1.69135       -0.84637        0.74126
B         -1.58618       -4.07368       -0.51923
B          4.00828       -0.84419        0.27462
B         -1.64683       -2.51426        0.16018
B          3.87306       -2.38416       -0.22226
B         -0.14701       -4.56456       -0.67471
B         -2.97686       -3.26901       -0.47373
B         -3.06322       -1.70147        0.08873
B         -4.49185       -0.83730       -0.17890
B         -0.27245        1.96022        1.17975
B         -1.69378        2.42166        0.32804
B         -3.15936        1.65545        0.30724
B         -4.60701        0.79052        0.13516
B         -4.45558        2.39345       -0.54584
B         -3.07584        3.18442       -0.32359
B         -1.70390        3.93554       -0.60248
B         -0.28368        3.37598        0.25154
B         -0.30203        4.42045       -0.94602
B          2.52169        3.20455       -0.33200
B          1.11994        3.92231       -0.59735
B          2.60753        1.65208        0.46332
B          3.88308        2.41603       -0.36007
B          4.00295        0.89335        0.20165
B          1.18888        2.48438        0.33307
B          1.23326       -2.48307        0.46823
B         -3.23551       -0.03805        0.63963
B          1.29436        0.82795        0.96172
B         -4.37637       -2.44177       -0.78377
B          5.26000       -1.61871       -0.60335
B          5.32809        0.01825       -0.20343
B          5.26768        1.63289       -0.71711
B          6.35024        0.72767       -1.30104
B          6.35201       -0.75758       -1.24975
B         -1.59055        0.80049        0.80187
B          0.26483        0.97751        2.26930
B         -0.27759       -1.85232        1.01481
B         -5.56353       -1.57028       -1.11647
B         -5.80325       -0.03000       -1.00306
B         -5.58636        1.46580       -0.97774
B         -0.33414       -0.26268        1.59675
