45
isomer_3120.log	Energy: -113763.9257559
B          2.43387        2.21528       -0.64562
B          1.98427        3.59385        0.38475
B          0.52580        4.20782        0.45619
B         -0.78707        3.36956       -0.40537
B          1.07539        1.29374       -1.26616
B         -1.77469        0.64379       -1.07199
B         -2.26255        3.78554        0.37717
B          3.65174        1.19557        0.15913
B         -2.06204        2.30088       -0.69156
B          3.09072        2.58961        0.93597
B         -0.99133        4.54115        0.67424
B         -3.44413        2.71008        0.24907
B         -3.26256        1.18895       -0.38226
B         -4.45857       -0.03191       -0.06454
B          0.20733       -1.64528       -1.57929
B         -0.86222       -2.54871       -0.60878
B         -2.37293       -2.10696       -0.26025
B         -3.87219       -1.55481        0.31595
B         -3.30898       -3.09689        0.85454
B         -1.77830       -3.48192        0.40601
B         -0.17575       -3.85895        0.42820
B          0.81842       -2.90566       -0.57929
B          1.30778       -3.90996        0.55712
B          3.62429       -2.02035       -0.81545
B          2.49654       -2.92635        0.08761
B          3.00310       -0.74666       -1.77296
B          3.95837       -0.39203       -0.41890
B          2.79483        0.82610       -1.42711
B          1.92046       -1.98851       -1.48248
B          0.83880        2.81371       -0.46128
B         -3.02463       -0.55152       -0.77301
B          1.35588       -0.33704       -1.05893
B         -4.52731        1.60185        0.64683
B          3.64975        1.47808        1.87536
B          3.42160       -0.14431        1.23015
B          3.62762       -1.88941        0.94807
B          4.02276       -1.20582        2.33894
B          4.02354        0.21651        2.72075
B         -1.39249       -0.99282       -1.28525
B          2.32924       -1.08150        0.12291
B         -0.51606        1.92988       -1.18287
B         -5.28657        0.41888        1.23922
B         -5.19747       -1.11041        1.28660
B         -4.63194       -2.55323        1.32482
B         -0.17238        0.16020       -1.38625
