45
isomer_3123.log	Energy: -113577.4285028
B         -3.15525        1.00782        0.52715
B         -3.41980        2.73787        0.13406
B         -2.21502        3.72115       -0.07860
B         -0.62501        3.09203        0.04868
B         -1.65293        0.36711        0.83283
B          1.26183        0.95312        0.58886
B          0.60348        4.18009       -0.36874
B         -4.49274        0.22030        0.89949
B          0.91582        2.49325        0.16558
B         -4.68856        1.74265        0.27827
B         -0.87982        4.59223       -0.33120
B          2.14201        3.60193       -0.37753
B          2.53410        2.12480        0.19393
B          4.14639        1.52042        0.16631
B          1.04177       -2.00110        1.66386
B          1.76745       -1.91500       -0.30762
B          3.09595       -1.18498        0.30145
B          4.34113       -0.14796       -0.04607
B          4.56269       -1.79652       -0.43696
B          3.29539       -2.88817       -0.13975
B          2.14740       -3.20420        1.01302
B          0.57310       -3.22758        0.59973
B          1.91837       -3.55556       -0.72856
B         -0.96123       -2.21221       -1.31938
B          0.49004       -2.90300       -1.19725
B         -1.56871       -1.41097        0.54498
B         -2.41277       -2.36368       -0.70690
B         -3.11872       -0.79318        0.20840
B         -1.02189       -3.18323        0.06231
B         -1.91505        2.10424        0.50621
B          2.96581        0.49504        0.74404
B         -0.14857       -0.34845        1.19785
B          3.62146        3.06975       -0.63799
B         -5.75755        0.58858       -0.13714
B         -4.77900       -0.90873       -0.19687
B         -3.85345       -1.95371       -1.11351
B         -5.24503       -1.53698       -1.62117
B         -6.16027       -0.49089       -1.10346
B          1.57667       -0.61701        0.97184
B          0.08334       -1.52446       -0.09266
B         -0.34757        1.42122        0.49425
B          4.91141        2.29343       -0.99665
B          5.44119        0.86304       -0.90680
B          5.56081       -0.72947       -0.85230
B         -0.57864       -2.29307        1.55400
