45
isomer_3124.log	Energy: -113283.9805564
B         -2.59681        1.60880        0.63030
B         -2.51911        3.29760        0.13634
B         -1.13370        4.06716       -0.01679
B          0.31494        3.38224        0.51977
B         -1.16791        0.86616        1.02384
B          1.75199        0.86535        0.87649
B          1.69112        4.10004       -0.29386
B         -4.03245        0.91069        0.36755
B          1.77916        2.51646        0.38657
B         -3.84376        2.49958       -0.14371
B          0.26569        4.67360       -0.38922
B          3.09160        3.28554       -0.28153
B          3.17395        1.71070        0.21251
B          4.53478        0.81818       -0.22324
B          0.32296       -1.71770        1.28075
B          1.67903       -2.47128        0.30934
B          3.09932       -1.68888        0.16602
B          4.47264       -0.85090       -0.23018
B          4.36875       -2.44306       -0.82260
B          2.92536       -3.22020       -0.46134
B          1.52069       -3.95423       -0.50165
B          0.17938       -3.36019        0.50818
B          0.07207       -4.46241       -0.65209
B         -2.74245       -3.16637       -0.15876
B         -1.27573       -3.94308       -0.20821
B         -2.69709       -1.49004        0.45294
B         -3.95698       -2.33936       -0.35023
B         -4.08312       -0.71004        0.25011
B         -1.44269       -2.46045        0.67544
B         -1.22293        2.55879        0.82068
B          3.30932        0.01146        0.57590
B         -1.26009       -0.75381        1.03695
B          4.47962        2.49789       -0.67994
B         -5.08201        1.83708       -0.81305
B         -5.15591        0.15967       -0.62875
B         -5.13126       -1.45287       -1.01255
B         -6.06701       -0.48361       -1.78169
B         -6.10003        1.02639       -1.64935
B          1.73269       -0.81964        0.87767
B         -0.62862       -2.71227        1.93844
B          0.34630        1.77526        1.08580
B          5.55247        1.54873       -1.21504
B          5.71336        0.00804       -1.25079
B          5.45618       -1.53437       -1.31658
B          0.30629        0.00937        0.94955
