45
isomer_3125.log	Energy: -113348.9412127
B          2.51902        1.71761       -0.43588
B          2.39823        3.39149        0.11244
B          1.00195        4.14153        0.30978
B         -0.44860        3.38212       -0.36414
B          1.11361        0.89680       -0.76376
B         -1.77031        0.79796       -0.87779
B         -1.84810        4.08044        0.36239
B          3.97905        1.02332       -0.36996
B         -1.87097        2.48890       -0.45158
B          3.76114        2.55121        0.33847
B         -0.45444        4.66159        0.58165
B         -3.22177        3.20520        0.22939
B         -3.26796        1.64491       -0.35823
B         -4.67247        0.69180       -0.08501
B         -0.15092       -1.86436       -1.17776
B         -1.60351       -2.50419       -0.42203
B         -3.05598       -1.77754       -0.25083
B         -4.48190       -0.93686        0.13554
B         -4.31472       -2.52514        0.71682
B         -2.83527       -3.21944        0.46808
B         -1.43569       -3.97066        0.70477
B         -0.13307       -3.24467       -0.05000
B         -0.01700       -4.44570        0.97640
B          2.70801       -3.13151       -0.06413
B          1.37323       -3.86461        0.55364
B          2.75428       -1.51757       -0.94605
B          4.02398       -2.24322        0.01806
B          4.12066       -0.68194       -0.49246
B          1.30518       -2.39868       -0.19931
B          1.09261        2.59620       -0.41169
B         -3.28775       -0.07902       -0.66647
B          1.22235       -0.61411       -1.11591
B         -4.55000        2.33432        0.53750
B          5.04670        1.84608        0.85084
B          5.20263        0.21396        0.42113
B          5.19946       -1.47210        0.67041
B          6.21043       -0.52188        1.44276
B          6.18058        0.95913        1.48110
B         -1.68811       -0.86237       -0.99330
B          1.47747       -2.06962       -1.78667
B         -0.39779        1.82164       -0.88470
B         -5.61048        1.35707        1.03378
B         -5.76784       -0.17237        1.04347
B         -5.51351       -1.71342        1.10324
B         -0.29241        0.02771       -0.92398
