45
isomer_3126.log	Energy: -113456.0032500
B         -2.87152        0.94082        0.34832
B         -2.84939        2.63126       -0.63896
B         -1.56679        3.46954       -0.77624
B         -0.12701        3.04182        0.04921
B         -1.32851        0.36071        0.60606
B          1.64035        0.82005        0.75804
B          1.23174        3.94983       -0.59209
B         -4.43509        0.92876        0.81718
B          1.46180        2.42291        0.16844
B         -4.18052        2.03594       -0.30405
B         -0.20931        4.23572       -0.98015
B          2.73696        3.36829       -0.30565
B          2.97783        1.88718        0.44679
B          4.53540        1.17505        0.25923
B          0.48766       -2.24067        1.19071
B          1.92977       -2.46638        0.28479
B          3.24083       -1.50832        0.31168
B          4.53665       -0.48012       -0.06802
B          4.69818       -2.08132       -0.56733
B          3.31226       -2.94377       -0.49981
B          1.93886       -3.60181       -1.02034
B          0.50010       -3.34563       -0.04379
B          0.54137       -3.89296       -1.53349
B         -2.21804       -2.68658       -0.76764
B         -0.88830       -3.42142       -1.16165
B         -2.23273       -1.18698        0.46874
B         -3.56458       -2.05735       -0.40072
B         -3.84547       -0.62754        0.36336
B         -0.97155       -2.40129        0.17397
B         -1.47566        1.87958       -0.07625
B          3.21197        0.16696        0.76715
B         -0.87577       -1.15853        1.40022
B          4.22050        2.76079       -0.41182
B         -5.72477        1.43090       -0.13868
B         -5.53073       -0.19127        0.30040
B         -5.06223       -1.63875       -0.45624
B         -6.39367       -0.96329       -0.85600
B         -6.75794        0.45377       -0.65825
B          1.83729       -0.88741        1.25572
B          0.25114        0.15241        1.56405
B          0.06207        1.48404        0.62281
B          5.47109        1.96887       -0.76320
B          5.84459        0.46995       -0.71837
B          5.82652       -1.10051       -0.77711
B          0.61467       -1.15329        2.35897
