45
isomer_3128.log	Energy: -113675.8857519
B          2.50891        1.75980       -0.48801
B          2.42725        3.33479        0.04013
B          1.04722        4.15728        0.12292
B         -0.35118        3.38484       -0.51492
B          1.12949        0.84864       -1.04167
B         -1.78638        0.83073       -0.91128
B         -1.74846        4.14425        0.24567
B          3.95639        0.91071       -0.21564
B         -1.80231        2.53291       -0.48877
B          3.80947        2.53727        0.29306
B         -0.34189        4.74567        0.35205
B         -3.09245        3.28071        0.26536
B         -3.17363        1.68026       -0.26076
B         -4.53219        0.79790        0.23745
B         -0.31285       -1.83075       -1.08723
B         -1.72453       -2.55180       -0.43112
B         -3.12904       -1.73363       -0.22106
B         -4.54674       -0.89419        0.14564
B         -4.32616       -2.49990        0.77075
B         -3.00846       -3.34083        0.27867
B         -1.64174       -4.17011        0.25830
B         -0.26864       -3.40250       -0.53819
B         -0.21947       -4.74830        0.35281
B          2.51397       -3.30358        0.03670
B          1.15701       -4.14914        0.10902
B          2.56344       -1.73045       -0.53090
B          3.86987       -2.48475        0.27567
B          3.98423       -0.84503       -0.22465
B          1.18603       -2.57746       -0.78876
B          1.11901        2.58978       -0.76464
B         -3.29357       -0.01623       -0.60905
B          1.17037       -0.85059       -1.06867
B         -4.40701        2.44447        0.74916
B          5.06046        1.73897        0.86493
B          5.19565        0.04481        0.52282
B          5.10465       -1.65142        0.84513
B          6.10501       -0.70638        1.60549
B          6.08460        0.81437        1.61274
B         -1.71807       -0.84349       -0.78790
B          2.60970        0.01618       -0.74608
B         -0.36933        1.82492       -1.11705
B         -5.47306        1.51844        1.30176
B         -5.61964       -0.03357        1.30486
B         -5.37267       -1.56976        1.33883
B         -0.34324       -0.00384       -1.09355
