45
isomer_3129.log	Energy: -113640.2273958
B          2.43680        1.76530       -0.47505
B          2.39024        3.38012        0.01929
B          1.00866        4.18262        0.06975
B         -0.41249        3.43820       -0.64142
B          1.07633        0.91714       -0.97852
B         -1.75724        0.82293       -0.89640
B         -1.78362        4.13781        0.25133
B          3.83562        0.90840       -0.13424
B         -1.80120        2.51728       -0.45752
B          3.74777        2.55631        0.31036
B         -0.38657        4.73235        0.34351
B         -3.11550        3.25130        0.29064
B         -3.15922        1.66611       -0.20342
B         -4.48734        0.72994        0.32459
B         -0.27868       -1.77379       -1.03942
B         -1.63138       -2.53800       -0.38317
B         -3.05539       -1.77129       -0.15330
B         -4.50000       -0.93933        0.21621
B         -4.29508       -2.57787        0.74829
B         -2.93021       -3.36724        0.32392
B         -1.55147       -4.20140        0.28334
B         -0.22440       -3.37330       -0.50499
B         -0.13289       -4.77150        0.28885
B          2.60854       -3.32227       -0.09375
B          1.24139       -4.16449       -0.04294
B          2.63406       -1.70651       -0.51551
B          3.99284       -2.47689        0.18242
B          3.92483       -0.78821       -0.17291
B          1.27912       -2.56551       -0.76954
B          1.10337        2.67881       -0.82039
B         -3.23005       -0.04608       -0.48843
B          2.48376        0.00045       -0.75550
B         -4.45910        2.39430        0.73824
B          4.98543        1.78012        0.92660
B          5.05020        0.09406        0.69081
B          5.13943       -1.62357        0.86898
B          6.11196       -0.64889        1.62666
B          6.05582        0.87254        1.65111
B         -1.70430       -0.83534       -0.74113
B          1.16241       -0.87213       -1.27141
B         -0.39820        1.85909       -1.20737
B         -5.54656        1.45789        1.24015
B         -5.67145       -0.12421        1.25693
B         -5.41585       -1.67377        1.27186
B         -0.34038        0.01852       -1.17749
