45
isomer_3133.log	Energy: -113473.6435816
B         -2.49897       -1.73343       -0.55621
B         -2.34885       -3.10734        0.52258
B         -0.97831       -3.85061        0.58918
B          0.22649       -3.30413       -0.54341
B         -1.21275       -0.76103       -0.73756
B          1.72881       -0.74306       -1.06342
B          1.77169       -4.09464        0.15036
B         -3.90398       -0.88780       -0.23508
B          1.73887       -2.45333       -0.47840
B         -3.74262       -2.34014        0.47581
B          0.43608       -4.50932        0.60283
B          3.09829       -3.23800        0.07654
B          3.14371       -1.65426       -0.47901
B          4.38028       -0.70901        0.21682
B          0.26866        1.80794       -0.87543
B          1.66131        2.57662       -0.38804
B          3.10547        1.83711       -0.19940
B          4.55015        0.93312        0.00418
B          4.34544        2.56459        0.70583
B          2.96732        3.36192        0.42007
B          1.55658        4.16400        0.47895
B          0.20689        3.37454       -0.29339
B          0.13230        4.67778        0.61730
B         -2.61275        3.26655        0.03468
B         -1.27866        4.06724        0.25944
B         -2.60912        1.57103       -0.74709
B         -3.89121        2.40685        0.04233
B         -4.00943        0.84843       -0.43483
B         -1.24979        2.48009       -0.46592
B         -1.25514       -2.75468       -1.01819
B          3.21332        0.12296       -0.61293
B         -1.19971        0.86677       -1.09477
B          4.48310       -2.38640        0.40761
B         -5.13534       -1.59555        0.73133
B         -5.29360       -0.03849        0.08127
B         -5.28330        1.62132        0.41095
B         -6.34358        0.77383        1.09691
B         -6.26170       -0.68870        1.26635
B          1.71232        0.92221       -0.79497
B         -0.96963       -2.03227        0.56078
B          0.27269       -1.58295       -0.49310
B          5.59973       -1.49428        0.89078
B          5.73282        0.08702        0.99912
B          5.47141        1.60354        1.12240
B          0.27471        0.02397       -1.25325
