45
isomer_3134.log	Energy: -112553.4171049
B          2.47126        1.78161       -0.52003
B          2.44214        3.41668       -0.12845
B          1.02595        4.22243        0.13985
B         -0.42501        3.37063       -0.39566
B          1.02207        0.86851       -0.81153
B         -1.85368        0.85253       -0.85639
B         -1.81776        4.12906        0.31803
B          3.94455        0.93052       -0.47300
B         -1.79212        2.45410       -0.28576
B          3.86447        2.61822       -0.00364
B         -0.40184        4.81446        0.44211
B         -3.23564        3.25915        0.34660
B         -3.24430        1.64135       -0.23072
B         -4.68371        0.80195        0.28070
B         -0.37997       -1.67988       -0.96078
B         -1.74229       -2.40125       -0.32013
B         -3.21083       -1.61934       -0.25380
B         -4.66710       -0.81697        0.26925
B         -4.48008       -2.37446        0.50105
B         -3.16890       -3.24463        0.30057
B         -1.73346       -4.08476        0.25989
B         -0.35667       -3.28788       -0.44279
B         -0.30376       -4.74264        0.37446
B          2.51085       -3.27885       -0.17584
B          1.11154       -4.11722        0.08082
B          2.50636       -1.63816       -0.54424
B          3.91651       -2.45322       -0.03954
B          3.96188       -0.75776       -0.48495
B          1.08260       -2.47607       -0.69253
B          1.03059        2.59214       -0.65666
B         -3.31753        0.11289       -0.63696
B          1.03869       -0.75096       -0.82299
B         -4.52867        2.35951        0.53456
B          5.20393        1.82376        0.47596
B          5.21448        0.19431        0.23056
B          5.23946       -1.63831        0.45146
B          6.40334       -0.67568        1.04392
B          6.38741        0.87693        1.05491
B         -1.83678       -0.79336       -0.86804
B          3.91347       -0.45031        1.60846
B         -0.41537        1.76998       -0.93636
B         -6.02670        1.63141        0.76496
B         -6.20323       -0.08417        0.82058
B         -5.98765       -1.81200        0.81114
B          1.52147       -1.34426        0.43097
