45
isomer_3136.log	Energy: -113559.6317676
B          2.40992        1.92444       -0.51101
B          2.23975        3.44084        0.15279
B          0.77367        4.18133        0.24708
B         -0.57747        3.37194       -0.39926
B          0.97938        0.92214       -0.96766
B         -1.79450        0.72377       -0.72035
B         -2.03858        4.03557        0.25355
B          3.80381        1.07209       -0.09660
B         -1.97838        2.41086       -0.45676
B          3.66021        2.77028        0.34847
B         -0.67247        4.69320        0.48727
B         -3.36326        3.12685        0.14534
B         -3.36982        1.53593       -0.34918
B         -4.73949        0.59349       -0.20955
B         -0.22249       -1.67994       -1.04522
B         -1.56965       -2.53412       -0.40157
B         -3.02429       -1.83079       -0.17964
B         -4.51775       -1.03598        0.13111
B         -4.28008       -2.67987        0.63914
B         -2.85467       -3.37214        0.31232
B         -1.36791       -4.08947        0.36128
B         -0.09274       -3.31390       -0.47332
B          0.06686       -4.55265        0.52502
B          2.71801       -3.03998        0.01192
B          1.43254       -3.89352        0.16583
B          2.74842       -1.47576       -0.77464
B          4.05465       -2.17953        0.29382
B          4.17467       -0.62897       -0.91679
B          1.33950       -2.39774       -0.72345
B          0.89399        2.60952       -0.49499
B         -3.27020       -0.17106       -0.66021
B          1.08066       -0.71932       -1.03543
B         -4.69065        2.21119        0.47478
B          4.90080        1.89105        0.85697
B          5.31365        0.27432        0.11046
B          5.39095       -1.36011        0.15826
B          4.93974       -0.92054        1.62849
B          4.65948        0.61633        1.71426
B         -1.67555       -0.86274       -0.83959
B          3.59379       -0.52716        0.74493
B         -0.47839        1.69077       -0.84961
B         -5.66853        1.17909        0.98619
B         -5.84030       -0.35788        0.96279
B         -5.54034       -1.87093        1.01533
B          2.45304        0.21911       -0.62257
