45
isomer_3137.log	Energy: -113522.9623156
B         -1.39170        2.00072       -0.04219
B         -1.00030        3.55726       -0.33423
B          0.45812        4.13453       -0.02746
B          1.47443        3.29239        1.10267
B         -0.23974        0.73053        0.91898
B          1.89655        0.46208        1.16266
B          3.11164        3.57413        0.46963
B         -2.94197        1.55312       -0.52933
B          2.64659        2.04981        1.15950
B         -2.44874        3.06701       -0.92539
B          1.94077        4.46361        0.11452
B          4.11251        2.34213        0.38749
B          3.52837        0.81798        0.52675
B          4.13869       -0.26030       -0.62039
B         -0.70164       -0.89360        0.02602
B          0.21334       -2.32332       -0.12730
B          1.86036       -2.03213       -0.42693
B          3.52748       -1.80429       -0.74207
B          2.70118       -3.05540       -1.56338
B          1.23215       -3.41747       -0.99813
B         -0.00491       -4.12113       -0.31308
B         -0.59845       -3.34182        1.12269
B         -1.29745       -4.56814        0.32190
B         -3.41215       -2.51949        0.89102
B         -2.39058       -3.70018        0.90960
B         -2.83325       -0.90701        1.02959
B         -4.38138       -1.38799        0.31328
B         -3.63711        0.03548       -0.06599
B         -1.81139       -2.13167        1.30586
B         -0.05740        2.60878        0.64810
B          2.71471       -0.67502        0.20739
B         -1.88233        0.36374        0.23949
B          5.00755        1.18165       -0.35832
B         -3.87560        2.64061       -1.49557
B         -4.47962        1.10916       -1.01250
B         -5.21699       -0.39321       -0.61419
B         -5.93000        0.74245       -1.52039
B         -5.33717        2.08114       -1.91389
B          0.96310       -0.80808        0.69120
B         -1.25600       -0.47534        1.68746
B          1.01533        1.73388        1.57763
B          5.60088        0.02689       -1.15202
B          4.99794       -1.37064       -1.63551
B          4.11043       -2.59506       -1.99260
B         -0.12625       -1.78778        1.59744
