45
isomer_3139.log	Energy: -113385.8438724
B         -2.07809       -1.44794       -0.22177
B         -2.60334       -3.16762       -0.48762
B         -1.47870       -4.29478       -0.48276
B          0.08010       -3.36034       -1.03506
B         -0.87099       -0.55418       -1.18153
B          1.08214       -0.66300       -0.79199
B          1.38371       -4.07275        0.03614
B         -3.47665       -0.58576        0.15248
B          1.40181       -2.37256       -0.49060
B         -3.58347       -2.22452        0.33508
B         -0.09103       -4.61337        0.03050
B          2.65126       -3.25496        0.21909
B          2.82538       -1.61448       -0.25498
B          4.10184       -0.85616        0.46368
B          0.37500        1.80632       -1.24774
B          1.74741        2.56183       -0.60914
B          3.09115        1.70145       -0.25370
B          4.36003        0.78993        0.38477
B          4.19121        2.42529        0.90241
B          3.02466        3.30972        0.21312
B          1.72279        4.19868        0.04361
B          0.36767        3.52951       -0.85099
B          0.32040        4.84212        0.05089
B         -2.44722        3.56382       -0.33590
B         -1.06722        4.32353       -0.35369
B         -2.41531        1.87862       -0.71731
B         -3.64104        2.70144        0.06943
B         -3.58104        1.03113       -0.00064
B         -1.05704        2.65477       -1.07616
B         -1.32806       -2.36871       -1.43395
B          3.05578        0.00177       -0.51119
B         -1.12589        1.03378       -1.29595
B          3.94148       -2.47564        0.88080
B         -4.60886       -1.41440        1.19137
B         -4.25372        0.29665        1.33553
B         -4.73218        1.88054        1.01128
B         -5.64653        1.03532        1.86478
B         -5.64159       -0.45412        1.83112
B          1.65350        0.87947       -0.86760
B         -1.03896       -2.94037        0.37338
B          0.24261       -1.82640       -1.71942
B          5.01308       -1.64691        1.52898
B          5.25649       -0.10770        1.61279
B          5.11031        1.43158        1.63289
B         -0.23287       -1.56057        0.05555
