45
isomer_0314.log	Energy: -113273.5938258
B          2.91122        1.83504       -0.81392
B          2.61147        3.25443       -0.08657
B          1.24660        3.85049        0.06337
B         -0.14119        3.13705       -0.58412
B          2.19241        0.49213       -0.99297
B         -1.84368        0.76461       -1.06919
B         -1.53161        4.01288        0.03710
B          3.99715        0.90144       -0.11435
B         -1.74209        2.46299       -0.75056
B          3.99046        2.56766        0.26558
B         -0.12394        4.46546        0.31212
B         -2.96448        3.35137        0.00057
B         -3.14947        1.74107       -0.29675
B         -4.56782        0.98271        0.26852
B          0.04838       -1.52724       -1.51767
B         -2.03628       -2.56699       -0.56701
B         -3.26325       -1.60835       -0.03734
B         -4.45761       -0.61966        0.64071
B         -4.26169       -2.22343        1.25838
B         -3.06561       -3.10601        0.62027
B         -1.68531       -3.88582        0.43078
B         -0.42714       -3.17969       -0.82587
B         -0.31035       -4.37114        0.32326
B          2.50073       -3.26112        0.05092
B          1.10239       -3.93739        0.02744
B          2.70995       -1.61354       -0.50656
B          3.82371       -2.40457        0.43217
B          3.96691       -0.81892       -0.04576
B          1.28449       -2.53375       -0.79140
B          1.25824        2.06568       -0.72256
B         -3.37338        0.04988       -0.53153
B          1.43460       -0.92366       -1.18173
B         -4.24349        2.65887        0.67826
B          5.09997        1.71720        1.00585
B          5.11014        0.03126        0.73728
B          5.08854       -1.64876        1.09027
B          6.04364       -0.73935        1.84422
B          5.99610        0.76856        1.87266
B         -2.09109       -0.87507       -1.23974
B          0.49929        0.37532       -1.20063
B         -0.41579        1.61068       -1.29005
B         -5.17320        1.81290        1.50692
B         -5.42496        0.29042        1.72382
B         -5.25859       -1.24794        1.86809
B         -1.36435       -2.10770       -1.89225
