45
isomer_3140.log	Energy: -113505.3212147
B         -2.68362       -1.09678       -1.16369
B         -3.86949       -3.18701        0.31190
B         -2.73916       -4.04545        0.53156
B         -0.62358       -2.97716       -0.76589
B         -0.99518       -0.36359       -1.45391
B          1.60439       -0.96604       -1.14640
B          0.32732       -3.78173        0.37592
B         -3.76046       -0.11220       -0.35324
B          1.04643       -2.49265       -0.49751
B         -3.81760       -1.72369       -0.00464
B         -1.19606       -3.97038        0.41411
B          1.92606       -3.45948        0.51099
B          2.55927       -2.08312       -0.14018
B          4.09826       -1.61272        0.42037
B          0.86230        1.74930       -1.08084
B          2.44325        2.22458       -0.62608
B          3.63721        1.10985       -0.40052
B          4.73011       -0.07560        0.10834
B          4.92187        1.55021        0.68194
B          3.85819        2.66547        0.16258
B          2.70362        3.76528        0.21188
B          1.17504        3.35812       -0.53515
B          1.44303        4.59179        0.45942
B         -1.57790        3.69746        0.22116
B         -0.04034        4.27713        0.24630
B         -1.97876        2.28254       -0.54509
B         -3.02702        3.13279        0.52099
B         -3.44864        1.56634       -0.00776
B         -0.39400        2.78745       -0.58221
B         -1.47954       -1.94938       -1.73617
B          3.24228       -0.55880       -0.64176
B         -0.74222        1.19846       -1.19489
B          3.44336       -3.08058        1.00347
B         -4.86296       -0.84130        0.86848
B         -4.85909        0.85408        0.54058
B         -4.30698        2.40782        1.14993
B         -5.29286        1.48548        1.96121
B         -5.66270        0.05265        1.76530
B          2.02199        0.59772       -0.98323
B         -2.38828       -2.75436       -0.47566
B          0.13768       -1.52897       -1.56497
B          4.79192       -2.56568        1.49368
B          5.41801       -1.13910        1.42314
B          5.61505        0.39134        1.36962
B         -2.26021        0.61991       -0.85308
