45
isomer_3142.log	Energy: -113510.9144871
B          2.53374        1.62283       -0.47857
B          2.52383        3.32747       -0.18977
B          1.18352        4.10833        0.02813
B         -0.32546        3.34653       -0.40636
B          1.00936        0.80124       -0.72174
B         -1.76528        0.83830       -0.81921
B         -1.63790        4.09125        0.40010
B          3.96127        0.82913       -0.55247
B         -1.73727        2.45707       -0.21681
B          3.89828        2.47958       -0.05441
B         -0.22725        4.69330        0.41849
B         -3.05694        3.26690        0.41172
B         -3.20346        1.75658       -0.19228
B         -4.56872        0.83432        0.23396
B         -0.41699       -1.59795       -0.96341
B         -1.87405       -2.42710       -0.55554
B         -3.33078       -1.65783       -0.44749
B         -4.74307       -0.77978       -0.15911
B         -4.60357       -2.40776        0.43678
B         -3.22818       -3.22457        0.05819
B         -1.84764       -4.00871        0.20015
B         -0.40495       -3.28747       -0.50307
B         -0.43957       -4.50671        0.54542
B          2.34064       -3.03960        0.29935
B          0.92676       -3.86237        0.38209
B          2.56175       -1.73923       -0.90630
B          3.84480       -2.63850        0.24957
B          3.98175       -0.91927       -0.62806
B          1.05865       -2.45548       -0.68106
B          1.14213        2.54478       -0.70358
B         -3.32897        0.06341       -0.64389
B          1.03011       -0.79314       -0.96569
B         -4.46771        2.47512        0.72319
B          5.14829        1.66848        0.48439
B          5.22020       -0.04572        0.17664
B          4.84807       -1.63020        0.84301
B          5.90871       -0.65073        1.51258
B          6.13925        0.78714        1.24557
B         -1.80975       -0.75514       -0.80116
B          2.95531       -1.34501        0.82961
B         -0.36545        1.67562       -0.86272
B         -5.67829        1.59348        1.07890
B         -5.89608        0.05861        1.00024
B         -5.66819       -1.47225        0.96688
B          2.40911       -0.07498       -0.07225
