45
isomer_3144.log	Energy: -112575.7148193
B         -2.61777        1.69845        0.40149
B         -2.60942        3.33511        0.01566
B         -1.20253        4.16580       -0.22396
B          0.25271        3.33701        0.33551
B         -1.15877        0.80917        0.71677
B          1.71552        0.84204        0.81456
B          1.64516        4.12152       -0.35002
B         -4.07517        0.82254        0.32465
B          1.63708        2.44429        0.24794
B         -4.01535        2.51297       -0.13784
B          0.22024        4.78312       -0.49800
B          3.07800        3.27600       -0.35519
B          3.10371        1.65660        0.21710
B          4.56642        0.84361       -0.27035
B          0.28366       -1.71546        0.88382
B          1.66966       -2.41130        0.26611
B          3.12559       -1.60425        0.22931
B          4.57728       -0.77538       -0.26429
B          4.42121       -2.33502       -0.50440
B          3.12164       -3.22809       -0.33084
B          1.70028       -4.09270       -0.31927
B          0.29739       -3.32183        0.36043
B          0.28437       -4.77445       -0.46223
B         -2.56449       -3.36074        0.04073
B         -1.14657       -4.17425       -0.19274
B         -2.59482       -1.72149        0.41430
B         -3.98132       -2.55871       -0.11885
B         -4.06384       -0.86582        0.33097
B         -1.15991       -2.53553        0.58616
B         -1.19392        2.53293        0.56719
B          3.19559        0.12821        0.61981
B         -1.14790       -0.81038        0.72283
B          4.38945        2.39918       -0.52212
B         -5.33200        1.69747       -0.64454
B         -5.31919        0.06724       -0.40450
B         -5.30877       -1.76476       -0.63158
B         -6.47786       -0.82006       -1.24236
B         -6.48828        0.73262       -1.24817
B          1.72656       -0.80394        0.82072
B         -1.11611        0.23277        1.76359
B          0.26051        1.73456        0.87091
B          5.90369        1.69751       -0.72717
B          6.11052       -0.01461       -0.78493
B          5.92438       -1.74589       -0.78489
B          0.36335       -0.43605       -0.53231
