45
isomer_3145.log	Energy: -111105.5113182
B         -2.56983       -1.60661       -0.51730
B         -2.58670       -3.24532       -0.14059
B         -1.19339       -4.09483        0.11203
B          0.27899       -3.28125       -0.42444
B         -1.09602       -0.73392       -0.80921
B          1.77864       -0.80219       -0.87105
B          1.65281       -4.08684        0.27412
B         -4.01709       -0.71298       -0.45387
B          1.67313       -2.40640       -0.31446
B         -3.98414       -2.40652       -0.00016
B          0.21802       -4.73137        0.40047
B          3.09586       -3.25934        0.30205
B          3.14893       -1.63729       -0.26077
B          4.61536       -0.84532        0.24959
B          0.37967        1.77335       -0.94394
B          1.76630        2.44842       -0.30497
B          3.21150        1.62305       -0.25439
B          4.64642        0.77342        0.25275
B          4.50673        2.33355        0.49963
B          3.22066        3.24373        0.31477
B          1.81041        4.12609        0.29018
B          0.40675        3.37654       -0.41142
B          0.40140        4.82470        0.41915
B         -2.45823        3.44948       -0.12750
B         -1.03337        4.24391        0.12834
B         -2.50421        1.81280       -0.51061
B         -3.88683        2.66436        0.00976
B         -3.98470        0.97512       -0.45057
B         -1.05723        2.60976       -0.65986
B         -1.15448       -2.45790       -0.66977
B          3.26489       -0.10799       -0.65371
B         -1.06495        0.88537       -0.80605
B          4.41590       -2.39990        0.49037
B         -5.29685       -1.57740        0.49452
B         -5.26074        0.05383        0.26382
B         -5.23042        1.88429        0.50129
B         -6.41879        0.95096        1.09201
B         -6.44858       -0.60148        1.08897
B          1.81022        0.84353       -0.86783
B         -2.04203       -0.49211        2.18278
B          0.31348       -1.67613       -0.95069
B          5.93604       -1.71835        0.71838
B          6.16338       -0.00928        0.78834
B          5.99880        1.72416        0.79568
B         -1.42569       -1.72968       -0.26585
