45
isomer_3146.log	Energy: -111220.3485950
B          2.59049        1.83474       -0.43746
B          2.55837        3.47781       -0.08125
B          1.13969        4.29145        0.14704
B         -0.30420        3.43087       -0.39351
B          1.14433        0.91806       -0.73276
B         -1.73035        0.90593       -0.82353
B         -1.70670        4.20665        0.28141
B          4.06112        0.98238       -0.34866
B         -1.67474        2.51918       -0.28616
B          3.97691        2.67981        0.08336
B         -0.29157        4.89217        0.41364
B         -3.12660        3.33991        0.30565
B         -3.12924        1.71021       -0.23722
B         -4.57837        0.88428        0.26871
B         -0.26025       -1.63059       -0.85035
B         -1.63413       -2.33588       -0.21650
B         -3.10197       -1.55029       -0.19044
B         -4.56483       -0.73454        0.29194
B         -4.38469       -2.28705        0.55978
B         -3.07221       -3.16347        0.39895
B         -1.63800       -4.00668        0.39925
B         -0.24851       -3.22724       -0.29798
B         -0.21164       -4.66436        0.55075
B          2.61437       -3.21732        0.01481
B          1.20944       -4.04769        0.26669
B          2.61909       -1.58483       -0.38840
B          4.01933       -2.39132        0.15612
B          4.07524       -0.70580       -0.32444
B          1.19622       -2.42333       -0.54174
B          1.15383        2.64458       -0.61445
B         -3.19902        0.17357       -0.61200
B          1.15787       -0.70131       -0.70953
B         -4.42428        2.44664        0.49186
B          5.30690        1.89351        0.60124
B          5.31811        0.25919        0.39073
B          5.33586       -1.56835        0.65090
B          6.49202       -0.59527        1.24142
B          6.47903        0.95724        1.21914
B         -1.71659       -0.73987       -0.79992
B          1.05398       -3.56139       -0.93131
B         -0.28911        1.81906       -0.89984
B         -5.92728        1.72611        0.71356
B         -6.10813        0.01239        0.80279
B         -5.89590       -1.71560        0.83355
B         -0.28388       -1.15355       -0.36585
