45
isomer_3147.log	Energy: -113434.6958591
B          2.60271       -1.63225        0.67714
B          2.51830       -3.23842        0.05824
B          1.16532       -4.11621       -0.04713
B         -0.30909       -3.37692        0.49141
B          1.12979       -0.83961        1.03679
B         -1.56626       -0.74893        0.09566
B         -1.64115       -4.14466       -0.34798
B          4.01940       -0.80044        0.41928
B         -1.70118       -2.50548        0.27681
B          3.87747       -2.36315       -0.14766
B         -0.22779       -4.71974       -0.36917
B         -3.05078       -3.30191       -0.37327
B         -3.07156       -1.69239       -0.06120
B         -4.54014       -0.82447       -0.01461
B         -0.25426        1.63895        0.62866
B         -1.68537        2.49236        0.51764
B         -3.12103        1.75495        0.40488
B         -4.40418        0.83369       -0.26138
B         -4.42561        2.53156       -0.45697
B         -3.00945        3.29985       -0.11514
B         -1.62343        4.18668       -0.11694
B         -0.24167        3.26456        0.20191
B         -0.20813        4.77100       -0.26878
B          2.59526        3.26191       -0.08354
B          1.21558        4.10177       -0.18041
B          2.66894        1.57976        0.35914
B          3.99480        2.41730       -0.25546
B          4.10154        0.87428        0.41047
B          1.27530        2.45354        0.32938
B          1.21136       -2.55806        0.68142
B         -3.13158       -0.00804        0.47127
B          1.21076        0.69409        0.59580
B         -4.42329       -2.46915       -0.71013
B          5.15135       -1.65712       -0.67929
B          5.31300       -0.00584       -0.33654
B          5.28901        1.67118       -0.69117
B          6.39297        0.71809       -1.29472
B          6.30329       -0.76874       -1.33212
B         -1.69236        0.75623        1.08331
B         -0.32641       -0.07685        1.58116
B         -0.35512       -1.73449        0.93876
B         -5.51490       -1.48220       -1.07559
B         -5.74404        0.07699       -0.98039
B         -5.58959        1.64461       -0.90458
B         -0.17777        0.04172       -0.15496
