45
isomer_3148.log	Energy: -113361.2466621
B         -2.58699        1.77034        0.50100
B         -2.54177        3.34620       -0.02038
B         -1.10359        4.11651       -0.18196
B          0.30497        3.36843        0.40662
B         -1.11718        0.86163        0.82814
B          1.72021        0.84379        0.92091
B          1.70079        4.08439       -0.34575
B         -4.04197        0.92741        0.33499
B          1.74257        2.49246        0.36259
B         -3.92294        2.55496       -0.19972
B          0.28507        4.67216       -0.50163
B          3.07631        3.26584       -0.30433
B          3.17191        1.72623        0.31067
B          4.57852        0.88973       -0.09782
B          0.48532       -1.86057        1.33314
B          1.80334       -2.49251        0.32934
B          3.18438       -1.66473        0.29330
B          4.54166       -0.80777       -0.14750
B          4.52314       -2.41359       -0.63503
B          3.09396       -3.18371       -0.41119
B          1.70190       -4.01897       -0.44637
B          0.32809       -3.29902        0.40019
B          0.27357       -4.57498       -0.56750
B         -2.54503       -3.30635        0.10631
B         -1.10893       -4.04453       -0.18026
B         -2.58180       -1.69350        0.45904
B         -3.94247       -2.49485       -0.12828
B         -4.04010       -0.85762        0.35079
B         -1.13668       -2.48147        0.59428
B         -1.15200        2.56993        0.59521
B          3.22074        0.03728        0.62521
B         -1.10990       -0.73511        0.65785
B          4.49673        2.51354       -0.56500
B         -5.19849        1.71760       -0.67924
B         -5.23841        0.03230       -0.41577
B         -5.21002       -1.67655       -0.65600
B         -6.27368       -0.73875       -1.33997
B         -6.27710        0.77790       -1.35697
B          1.74948       -0.84711        1.00581
B         -2.61921        0.02482        0.81139
B          0.34111        1.68888        0.94285
B          5.69384        1.61426       -0.95872
B          5.87779        0.06917       -0.92175
B          5.70633       -1.49395       -0.97671
B          0.14656       -1.28012       -0.13180
