45
isomer_3149.log	Energy: -113663.3464291
B         -2.52161       -1.76033       -0.29591
B         -2.44288       -3.35627        0.14192
B         -1.04323       -4.17950        0.14502
B          0.33744       -3.40209       -0.53991
B         -1.15594       -0.86459       -0.92469
B          1.71969       -0.81064       -0.83155
B          1.74858       -4.15768        0.19468
B         -3.95707       -0.90563       -0.23994
B          1.77839       -2.52392       -0.50326
B         -3.84821       -2.53991        0.35415
B          0.34962       -4.77096        0.31451
B          3.09685       -3.29390        0.20103
B          3.16084       -1.69749       -0.26138
B          4.53521       -0.81831        0.17672
B          0.32878        1.86037       -1.13701
B          1.74777        2.56367       -0.43120
B          3.12787        1.74271       -0.18480
B          4.51879        0.87013        0.20443
B          4.39048        2.49076        0.77351
B          3.03130        3.32280        0.32750
B          1.65757        4.15542        0.31041
B          0.29089        3.40765       -0.52668
B          0.23555        4.73367        0.39566
B         -2.49862        3.30526        0.01587
B         -1.13220        4.14547        0.13022
B         -2.53840        1.73904       -0.53985
B         -3.86324        2.49306        0.23361
B         -3.96491        0.85661       -0.21657
B         -1.15971        2.59208       -0.78926
B         -1.14886       -2.57684       -0.62492
B          3.25402        0.02512       -0.54241
B         -1.12990        0.83937       -1.04439
B          4.44618       -2.47035        0.65851
B         -5.12962       -1.71841        0.80912
B         -5.19887       -0.02927        0.48500
B         -5.11346        1.66934        0.78675
B         -6.16361        0.73285        1.50173
B         -6.18513       -0.78426        1.49464
B          1.72138        0.85949       -0.81471
B         -2.60922        0.01560       -0.78312
B          0.32576       -1.82420       -1.08468
B          5.52034       -1.54190        1.20284
B          5.68687        0.00873        1.22652
B          5.47336        1.56117        1.28034
B          0.32115        0.03607       -1.04850
