45
isomer_0315.log	Energy: -113377.3212741
B         -2.75677        1.56808        0.62153
B         -2.76225        3.27505       -0.04591
B         -1.42238        4.08438       -0.11336
B          0.04144        3.27052        0.35252
B         -1.39022        0.78855        1.01493
B          1.62309        0.79775        0.88420
B          1.40474        4.22230       -0.08506
B         -4.09163        0.81482        0.15489
B          1.54800        2.56335        0.62158
B         -4.00493        2.40825       -0.24202
B         -0.03146        4.74664       -0.24325
B          2.79693        3.44854       -0.07056
B          2.97708        1.83056        0.30175
B          4.45528        1.06131       -0.07611
B          0.16356       -1.73114        1.42781
B          2.18803       -2.76330        0.63256
B          3.10615       -1.53937       -0.04042
B          4.32306       -0.50676       -0.60663
B          4.33800       -2.11901       -1.17843
B          3.11616       -3.05306       -0.70529
B          1.78428       -3.91996       -0.57381
B          0.51032       -3.29722        0.67060
B          0.42121       -4.49741       -0.47180
B         -2.37253       -3.23763       -0.14669
B         -0.93954       -3.99039       -0.16069
B         -2.55742       -1.66088        0.52383
B         -3.73361       -2.44813       -0.40100
B         -3.91540       -0.89306        0.05107
B         -1.13188       -2.51161        0.59634
B         -1.39062        2.39112        0.47829
B          3.19250        0.10083        0.54194
B         -1.23760       -0.83783        1.11298
B          4.15370        2.72336       -0.54893
B         -5.32003        1.52307       -0.75775
B         -5.30793       -0.12572       -0.38544
B         -5.10703       -1.74124       -0.89233
B         -6.19976       -0.89414       -1.54873
B         -6.30518        0.59251       -1.48844
B          1.87769       -0.89922        1.18545
B          0.20079       -0.03371        1.07246
B          0.13961        1.69385        0.87306
B          5.22929        1.88785       -1.21916
B          5.52583        0.39750       -1.43510
B          5.40053       -1.12991       -1.61803
B          1.46091       -2.35946        1.93714
