45
isomer_3150.log	Energy: -113435.9860563
B         -2.44121       -1.70198       -0.43376
B         -2.60537       -3.18699        0.84879
B         -1.25130       -3.97230        0.92397
B         -0.01975       -3.23162       -0.36902
B         -1.25242       -0.64831       -1.01629
B          1.71284       -0.77697       -1.04784
B          1.48649       -3.95191        0.26378
B         -3.79917       -0.77541       -0.14505
B          1.61597       -2.47830       -0.58112
B         -3.73813       -2.20410        0.59418
B          0.16305       -4.41739        0.75801
B          2.91077       -3.25013        0.10688
B          3.08141       -1.70486       -0.40497
B          4.45747       -0.86552        0.12375
B          0.36827        1.87901       -0.97074
B          1.78808        2.53816       -0.31726
B          3.17648        1.70123       -0.17957
B          4.60657        0.79393        0.02719
B          4.42869        2.39191        0.76077
B          3.11986        3.27790        0.40135
B          1.75354        4.13751        0.45977
B          0.36418        3.41323       -0.30519
B          0.34959        4.74593        0.56827
B         -2.43709        3.43046        0.07856
B         -1.07847        4.19095        0.26098
B         -2.47242        1.76450       -0.50253
B         -3.80569        2.62921        0.10417
B         -3.81261        0.98618       -0.17611
B         -1.13055        2.65783       -0.65625
B         -1.77673       -3.34364       -0.50574
B          3.28317        0.00092       -0.70647
B         -1.16574        0.95434       -1.04184
B          4.32421       -2.51776        0.54566
B         -5.17079       -1.42133        0.70923
B         -5.16610        0.15727        0.14558
B         -5.15069        1.83329        0.50353
B         -6.24230        0.94750        1.12603
B         -6.30827       -0.53667        1.15690
B          1.75296        0.88500       -0.76481
B          0.26402        0.07983       -0.98755
B          0.31480       -1.66662       -1.33248
B          5.46281       -1.68597        1.06738
B          5.67232       -0.13899        1.13423
B          5.47687        1.39360        1.22438
B         -1.10962       -2.31293       -1.44876
