45
isomer_3155.log	Energy: -113557.9301979
B          2.54428        1.69968       -0.65174
B          2.48401        3.36244       -0.35080
B          1.08247        4.14315       -0.16796
B         -0.34471        3.34626       -0.62299
B          1.04774        0.80162       -0.78552
B         -1.74030        0.79431       -0.75352
B         -1.72814        4.09817        0.16826
B          4.04997        0.84403       -0.52217
B         -1.78104        2.45235       -0.34640
B          3.80395        2.59752       -0.05910
B         -0.29588        4.71329        0.18879
B         -3.09608        3.27863        0.23260
B         -3.23025        1.67721       -0.29308
B         -4.62763        0.84540        0.08439
B         -0.37860       -1.63960       -0.94386
B         -1.78077       -2.45259       -0.34604
B         -3.23010       -1.67743       -0.29313
B         -4.62736       -0.84574        0.08541
B         -4.44739       -2.44665        0.69137
B         -3.09565       -3.27867        0.23326
B         -1.72755       -4.09809        0.16842
B         -0.34436       -3.34607       -0.62333
B         -0.29520       -4.71285        0.18903
B          2.48426       -3.36224       -0.35107
B          1.08293       -4.14310       -0.16860
B          2.54434       -1.69951       -0.65166
B          3.80415       -2.59726       -0.05950
B          4.04993       -0.84377       -0.52248
B          1.08935       -2.50784       -0.89115
B          1.08923        2.50799       -0.89055
B         -3.32936       -0.00019       -0.64683
B          1.04777       -0.80165       -0.78551
B         -4.44784        2.44639        0.69060
B          4.72121        1.68471        0.86479
B          5.29724        0.00014        0.35840
B          4.72146       -1.68449        0.86425
B          5.18947       -0.74801        1.95935
B          5.18941        0.74788        1.95950
B         -1.74086       -0.79462       -0.75412
B          3.69085       -0.00002        1.11767
B         -0.37855        1.63988       -0.94338
B         -5.52818        1.52824        1.23246
B         -5.74178       -0.00024        1.20666
B         -5.52825       -1.52883        1.23289
B          2.45181        0.00018       -0.10357
