45
isomer_3156.log	Energy: -113226.7300501
B          2.51166        1.49932       -0.77062
B          2.28343        3.08939       -0.11484
B          0.99177        3.93380        0.07821
B         -0.44927        3.28574       -0.61169
B          0.99887        0.83971       -1.49105
B         -1.96921        0.75772       -1.16082
B         -1.74189        3.98420        0.28224
B          4.14065        0.88002       -0.28159
B         -1.90777        2.45222       -0.66395
B          3.61200        2.33261        0.21126
B         -0.35492        4.54112        0.42751
B         -3.10575        3.14557        0.30447
B         -3.28532        1.64575       -0.28478
B         -4.60803        0.73539        0.36281
B         -0.48147       -1.86512       -1.39475
B         -1.83728       -2.49491       -0.54496
B         -3.23638       -1.75001       -0.18261
B         -4.57174       -0.90417        0.40351
B         -4.26867       -2.45022        1.06832
B         -2.91176       -3.20482        0.54143
B         -1.51127       -3.96627        0.53632
B         -0.36349       -3.30802       -0.62648
B         -0.07356       -4.37470        0.62265
B          2.51948       -2.80448       -0.22045
B          1.23305       -3.77665        0.16123
B          3.53233       -1.58517       -0.65450
B          4.40186       -2.16865        0.46520
B          4.73796       -0.69628       -0.28607
B          1.05336       -2.60649       -1.07879
B          1.06160        2.42595       -0.94902
B         -3.46695       -0.08928       -0.55978
B          0.87455       -0.73320       -1.65527
B         -4.41900        2.35148        0.83234
B          4.78473        1.82193        1.07046
B          5.39627        0.27789        0.82460
B          5.51220       -1.39607        1.22684
B          6.16615       -0.29377        2.14408
B          5.82106        1.15167        2.08236
B         -1.93986       -0.86164       -1.13332
B          2.12772       -1.45868       -1.21494
B         -0.50745        1.79446       -1.34061
B         -5.41030        1.48403        1.54432
B         -5.56249       -0.04559        1.63739
B         -5.28209       -1.57079        1.70256
B         -0.49477       -0.02502       -1.30923
