45
isomer_3158.log	Energy: -113571.5134084
B          2.60260       -1.71339        0.38560
B          2.50096       -3.41194        0.11127
B          1.18668       -4.30117       -0.02961
B         -0.27083       -3.39483        0.14704
B          2.39601        0.05699        0.48499
B         -1.65897       -0.81996        0.57878
B         -1.68532       -4.24197       -0.28437
B          3.85621       -0.87469        0.01303
B         -1.66962       -2.52194        0.19843
B          3.97140       -2.55696       -0.11160
B         -0.27514       -4.90444       -0.31681
B         -3.07823       -3.33102       -0.26646
B         -3.12352       -1.73010        0.16935
B         -4.61049       -0.87119        0.08098
B         -0.37594        1.87993        1.05807
B         -1.77780        2.57545        0.36350
B         -3.15978        1.69937        0.23278
B         -4.51284        0.77455       -0.22197
B         -4.48993        2.44400       -0.65699
B         -3.11813        3.29095       -0.27486
B         -1.75745        4.16269       -0.28049
B         -0.38954        3.50275        0.62343
B         -0.33087        4.68058       -0.48569
B          2.50193        3.43604       -0.08404
B          1.12384        4.23887       -0.21103
B          2.45929        1.74640        0.43465
B          3.87312        2.56087       -0.22541
B          3.86103        0.88518        0.02757
B          1.10029        2.74110        0.50700
B          1.17601       -2.60436        0.59328
B         -3.22076        0.01015        0.55537
B          1.05053        1.04066        0.64393
B         -4.44465       -2.54364       -0.54472
B          5.24341       -1.72942       -0.65468
B          5.20623        0.02740       -0.38856
B          5.21153        1.74585       -0.57408
B          6.39260        0.78819       -1.11358
B          6.34882       -0.72509       -1.20994
B         -1.70804        0.84227        0.80556
B         -0.26067        0.03008        0.99578
B         -0.27603       -1.76381        0.68541
B         -5.56644       -1.59248       -0.95744
B         -5.79939       -0.06358       -0.97465
B         -5.64732        1.52632       -1.01091
B          1.14521       -0.99065        1.18206
