45
isomer_3159.log	Energy: -113556.5409999
B          3.07810        0.79176       -0.73896
B          3.39180        2.59721       -0.24616
B          2.22843        3.61605       -0.24155
B          0.64378        3.17777       -0.70640
B          1.54744        0.41558       -1.19544
B         -1.35259        1.12697       -1.00768
B         -0.49868        4.30706       -0.08361
B          4.43479        0.01183       -0.53775
B         -0.97906        2.72079       -0.77245
B          4.50370        1.58838       -0.11711
B          0.99209        4.57368       -0.05843
B         -2.01330        3.80650        0.10504
B         -2.48923        2.27334       -0.25058
B         -3.95226        1.67161        0.35800
B         -0.78858       -1.68799       -1.92052
B         -1.97334       -2.20945       -0.75195
B         -3.09246       -1.08266       -0.15424
B         -4.18159        0.01392        0.42745
B         -4.15831       -1.58480        1.06660
B         -3.12711       -2.73481        0.37711
B         -2.27487       -3.94567       -0.06789
B         -0.80606       -3.35847       -1.48336
B         -0.95333       -4.66070       -0.50073
B          0.70581       -2.56771        0.67861
B          0.41991       -3.93589       -0.30662
B          1.49125       -1.23831       -0.53702
B          2.14135       -1.98920        0.97080
B          3.07124       -0.87567        0.13392
B          0.69446       -2.47789       -1.22981
B          1.88589        2.00431       -0.72249
B         -2.96473        0.63902       -0.57724
B          0.17423       -0.36048       -1.49095
B         -3.33918        3.29749        0.82700
B          5.53580        0.54370        0.65971
B          4.71480       -0.93541        0.73475
B          3.49527       -1.68857        1.65795
B          4.79952       -1.22109        2.35192
B          5.83660       -0.29990        1.85587
B         -1.58889       -0.49930       -0.90531
B         -0.94476       -3.05942        0.49460
B          0.22817        1.53359       -1.13585
B         -4.42478        2.54262        1.62876
B         -4.87200        1.08317        1.73448
B         -4.90490       -0.48420        1.78855
B         -0.33444       -1.43880       -0.11105
