45
isomer_3160.log	Energy: -113420.6227608
B          2.50289       -1.75365        0.25383
B          2.37308       -3.35413       -0.31558
B          0.92658       -4.14238       -0.34792
B         -0.41722       -3.29239        0.24838
B          1.19239       -0.79713        0.68819
B         -1.68160       -0.68640        1.09948
B         -1.89888       -4.07196       -0.12225
B          3.87435       -0.97594       -0.04701
B         -1.85617       -2.43910        0.58612
B          3.79541       -2.59248       -0.41048
B         -0.51058       -4.72705       -0.40141
B         -3.22490       -3.17838        0.03632
B         -3.20311       -1.53980        0.53978
B         -4.55212       -0.67063        0.05353
B         -0.21752        1.76420        0.91127
B         -1.52314        2.59379        0.15994
B         -2.92897        1.73459       -0.07110
B         -4.44604        1.02352       -0.07418
B         -4.19789        2.53962       -0.89967
B         -2.81286        3.37223       -0.51361
B         -1.43876        4.18260       -0.41118
B         -0.11640        3.42582        0.56699
B          0.02115        4.69846       -0.42407
B          2.71072        3.19948        0.06914
B          1.35924        4.10644       -0.03997
B          2.67769        1.60034        0.72024
B          3.96738        2.28561       -0.10370
B          3.96842        0.68934        0.24601
B          1.31264        2.52216        0.65803
B          1.10365       -2.55362        0.36101
B         -3.15040        0.12630        0.60257
B          1.22073        0.78593        1.01093
B         -4.57759       -2.37238       -0.32456
B          5.18354       -1.81087       -0.76328
B          5.31957       -0.21391       -0.09040
B          5.36226        1.44335       -0.43758
B          6.45696        0.58298       -1.01706
B          6.31543       -0.89519       -1.22600
B         -1.48013        0.81970        0.13636
B         -0.27125        0.11081        1.60686
B         -0.33184       -1.68400        0.76218
B         -5.61941       -1.43736       -0.87970
B         -5.67091        0.10155       -1.02617
B         -5.33728        1.62509       -1.25633
B         -0.17911       -0.14515       -0.11394
