45
isomer_3161.log	Energy: -113434.9262631
B         -2.51413        1.75103        0.47907
B         -2.48536        3.44744       -0.12512
B         -1.09012        4.20027       -0.17076
B          0.34242        3.41777        0.53522
B         -1.18651        0.90631        0.73046
B          1.76403        0.86729        0.97896
B          1.76508        4.14166       -0.19161
B         -3.93166        0.98755        0.14267
B          1.76280        2.50268        0.44360
B         -3.81548        2.57078       -0.27890
B          0.34823        4.73656       -0.36095
B          3.11050        3.26939       -0.19402
B          3.16230        1.68875        0.36389
B          4.46392        0.71795       -0.14696
B          0.28063       -1.79542        1.47642
B          1.37780       -2.26506       -0.28594
B          2.97696       -1.76174        0.13390
B          4.47406       -0.94397       -0.10145
B          4.19952       -2.50625       -0.82308
B          2.79761       -3.23246       -0.54515
B          1.45014       -4.06300       -0.38684
B          0.23733       -3.25824        0.56459
B          0.07615       -4.66820       -0.25473
B         -2.62808       -3.29304        0.16317
B         -1.29507       -4.08975        0.06340
B         -2.61965       -1.60731        0.53555
B         -3.93460       -2.41144       -0.08309
B         -3.94936       -0.78957        0.19120
B         -1.22544       -2.46188        0.77373
B         -1.13688        2.56589        0.37930
B          3.19569       -0.09103        0.64030
B         -1.21538       -0.73771        0.76273
B          4.46198        2.40020       -0.54106
B         -5.15640        1.74987       -0.74572
B         -5.23372        0.11647       -0.31358
B         -5.25603       -1.55655       -0.61925
B         -6.29108       -0.65872       -1.31522
B         -6.23615        0.83727       -1.39141
B          1.65085       -0.89735        0.85690
B          0.23439       -0.00753        1.22017
B          0.30627        1.77481        0.89738
B          5.55434        1.46510       -1.01946
B          5.67594       -0.11320       -1.08308
B          5.41347       -1.63440       -1.18348
B          0.11871       -1.27120       -0.17175
