45
isomer_3165.log	Energy: -112837.0360411
B         -2.70013       -1.61663       -0.59682
B         -2.56043       -3.25568       -0.14735
B         -1.13771       -4.11019        0.11045
B          0.30613       -3.36030       -0.40068
B         -1.39967       -0.71260       -0.87498
B          1.79319       -0.83229       -0.87067
B          1.66427       -4.12295        0.29849
B         -3.94878       -0.75292       -0.43269
B          1.75872       -2.49548       -0.28844
B         -3.91767       -2.39055        0.00390
B          0.22864       -4.65390        0.39459
B          3.08273       -3.29684        0.33393
B          3.16351       -1.69050       -0.22473
B          4.60261       -0.83100        0.26072
B          0.30718        1.83872       -0.91186
B          1.73816        2.49206       -0.29220
B          3.16159        1.67368       -0.24073
B          4.58079        0.82680        0.24672
B          4.48417        2.41847        0.53851
B          3.09549        3.26497        0.30521
B          1.70364        4.12749        0.29865
B          0.32897        3.41639       -0.37106
B          0.30485        4.71633        0.41940
B         -2.48079        3.41816       -0.04169
B         -1.07477        4.22004        0.18044
B         -2.52434        1.81015       -0.44743
B         -3.85123        2.53699        0.10012
B         -3.92824        0.96759       -0.37627
B         -1.13652        2.65827       -0.60092
B         -1.19483       -2.53070       -0.64817
B          3.25475       -0.06671       -0.62763
B         -1.14916        1.04318       -0.74662
B          4.52622       -2.44606        0.57055
B         -5.15605       -1.61646        0.54432
B         -5.11371        0.04747        0.32568
B         -5.07019        1.73959        0.57260
B         -6.13860        0.82043        1.13655
B         -6.22384       -0.64951        1.15220
B          1.78569        0.86133       -0.86449
B         -2.50378       -1.24270        1.04867
B          0.40019       -1.77357       -0.94346
B          5.77998       -1.54070        0.72724
B          5.91635        0.03886        0.74613
B          5.74730        1.53031        0.74138
B         -0.50469       -0.47905       -0.10756
