45
isomer_3166.log	Energy: -113495.2847661
B          2.44935        1.97152       -0.63667
B          2.19788        3.61916        0.03020
B          0.78079        4.23765        0.14544
B         -0.61714        3.41681       -0.62511
B          1.14203        1.04456       -1.01288
B         -1.74413        0.74230       -0.80786
B         -2.06805        3.97281        0.16152
B          3.79840        1.27037       -0.27026
B         -1.92861        2.38262       -0.51196
B          3.50080        2.76864        0.42699
B         -0.71378        4.61636        0.42599
B         -3.38291        3.02725        0.11971
B         -3.29277        1.44904       -0.31529
B         -4.59337        0.39023        0.02741
B         -0.06949       -1.65113       -1.18091
B         -1.32222       -2.54174       -0.31331
B         -2.81069       -1.91087       -0.08829
B         -4.35345       -1.24461        0.15233
B         -3.94756       -2.78280        0.87823
B         -2.48734       -3.41894        0.49598
B         -0.95225       -3.98578        0.52054
B          0.18397       -3.20417       -0.55536
B          0.54539       -4.10639        0.72497
B          2.99433       -3.10628       -0.94646
B          1.81206       -3.37561        0.19804
B          2.93627       -1.42718       -1.51199
B          4.13602       -2.18957       -0.40242
B          3.69694       -0.46592       -0.37534
B          1.52282       -2.32420       -1.24232
B          0.97481        2.72464       -0.61015
B         -3.19003       -0.29595       -0.62986
B          1.57206       -0.57177       -0.90355
B         -4.61375        2.06663        0.54380
B          4.60174        1.95016        1.20329
B          4.65889        0.32711        0.78677
B          4.26219       -1.40179        0.99317
B          4.98162       -0.52568        2.12185
B          5.29573        0.92117        2.15090
B         -1.55025       -0.90894       -0.82565
B          2.50530       -1.75444        0.28465
B         -0.42944        1.76526       -1.07871
B         -5.60113        1.02848        1.09574
B         -5.59062       -0.50455        1.17703
B         -5.17331       -2.02108        1.28599
B         -0.11707        0.02659       -1.10620
