45
isomer_3167.log	Energy: -112682.3212315
B          2.77730       -1.62867        0.29912
B          2.56524       -3.28698        0.01194
B          1.09999       -4.16330       -0.17517
B         -0.32944       -3.38911        0.34675
B          0.82828       -0.40978        0.76739
B         -1.82718       -0.80899        0.82043
B         -1.72091       -4.16582       -0.31671
B          4.05032       -0.75390        0.21096
B         -1.75836       -2.51551        0.24096
B          4.05714       -2.49643       -0.19781
B         -0.29835       -4.76350       -0.42790
B         -3.10359       -3.34083       -0.33879
B         -3.19567       -1.71072        0.21599
B         -4.63203       -0.87650       -0.23873
B         -0.44623        1.82377        0.89135
B         -1.84197        2.50513        0.25352
B         -3.25643        1.66537        0.21297
B         -4.65398        0.80446       -0.24288
B         -4.58422        2.43044       -0.55959
B         -3.21228        3.27458       -0.35256
B         -1.81699        4.14869       -0.34167
B         -0.42874        3.41601        0.35236
B         -0.36716        4.76937       -0.45004
B          2.44501        3.40603        0.02512
B          1.03665        4.23680       -0.18380
B          2.45508        1.78554        0.42610
B          3.84109        2.54741       -0.13332
B          3.97176        0.94448        0.26354
B          1.03154        2.64330        0.58835
B          1.05371       -2.64554        0.55651
B         -3.29984       -0.06329        0.60410
B          0.95782        1.03750        0.75991
B         -4.54089       -2.50808       -0.52446
B          5.33456       -1.62682       -0.71566
B          5.24363        0.04713       -0.47662
B          5.14388        1.78758       -0.66251
B          6.32069        0.89724       -1.25784
B          6.43637       -0.61415       -1.28013
B         -1.85625        0.87556        0.82779
B          3.55322       -0.47716        1.59206
B         -0.47193       -1.61964        0.85367
B         -5.87833       -1.66314       -0.69617
B         -6.04596       -0.02382       -0.73965
B         -5.91116        1.54447       -0.77085
B          1.27461       -1.03918       -0.03802
