45
isomer_3171.log	Energy: -113545.8842049
B          2.68599       -1.72769        0.63255
B          2.58982       -3.32116        0.06097
B          1.25089       -4.16233       -0.05195
B         -0.25919       -3.38848        0.31891
B          2.13740       -0.11014        0.63578
B         -1.69675       -0.84823        0.78459
B         -1.60074       -4.21460       -0.32276
B          3.75334       -0.74986        0.05411
B         -1.70934       -2.55779        0.49313
B          3.99115       -2.45679       -0.12314
B         -0.17197       -4.79006       -0.39275
B         -2.96902       -3.35930       -0.31418
B         -3.09592       -1.74629        0.19741
B         -4.54713       -0.91737       -0.10532
B         -0.36547        1.93066        1.24314
B         -1.76366        2.56900        0.48608
B         -3.10644        1.67514        0.19668
B         -4.42717        0.74280       -0.36204
B         -4.38081        2.40779       -0.77816
B         -3.06610        3.26675       -0.28843
B         -1.74148        4.15466       -0.21970
B         -0.35690        3.50100        0.73256
B         -0.34849        4.72476       -0.34029
B          2.44016        3.39170       -0.13620
B          1.07461        4.21940       -0.13424
B          2.40573        1.69392        0.41954
B          3.75782        2.52175       -0.38335
B          3.76752        0.90665       -0.02806
B          1.17386        2.73095        0.64145
B          1.21181       -2.56057        0.65956
B         -3.22621       -0.01137        0.51409
B          0.98890        0.96968        0.90226
B         -4.30212       -2.54538       -0.72206
B          5.18926       -1.65093       -0.74785
B          5.05576        0.03449       -0.62785
B          5.05942        1.74610       -0.83834
B          6.18724        0.81844       -1.43635
B          6.21795       -0.70530       -1.43710
B         -1.74350        0.83891        0.95098
B          1.07803       -0.99075        1.37726
B         -0.31040       -1.84380        0.97673
B         -5.38388       -1.60843       -1.26626
B         -5.62888       -0.07971       -1.26958
B         -5.46807        1.49554       -1.28225
B         -0.34700        0.00624        1.33045
