45
isomer_3173.log	Energy: -112672.1549198
B          2.52572        1.77526       -0.46680
B          2.48080        3.41167       -0.08675
B          1.07728        4.22222        0.15700
B         -0.36812        3.38327       -0.38083
B          1.05604        0.88224       -0.77530
B         -1.80984        0.84655       -0.84613
B         -1.75740        4.13892        0.31574
B          3.99325        0.92312       -0.39356
B         -1.74861        2.46805       -0.27835
B          3.89474        2.59968        0.05898
B         -0.34830        4.79627        0.44090
B         -3.17236        3.27568        0.33980
B         -3.19291        1.65664       -0.23110
B         -4.63567        0.81142        0.26540
B         -0.36637       -1.73564       -0.92407
B         -1.73928       -2.44049       -0.29688
B         -3.18680       -1.63871       -0.24577
B         -4.62254       -0.81885        0.25753
B         -4.47460       -2.38991        0.50694
B         -3.15279       -3.27088        0.30958
B         -1.73729       -4.12071        0.28537
B         -0.35295       -3.34196       -0.40125
B         -0.32853       -4.76423        0.40992
B          2.52723       -3.35550       -0.07717
B          1.09394       -4.17277        0.13981
B          2.46403       -1.70467       -0.47643
B          3.99918       -2.54272        0.08210
B          4.02927       -0.75599       -0.38450
B          1.07783       -2.55394       -0.63419
B          1.08023        2.60880       -0.62470
B         -3.27709        0.09783       -0.63264
B          1.04042       -0.84463       -0.76734
B         -4.49484        2.38981        0.53084
B          5.22698        1.81902        0.55915
B          5.24922        0.18119        0.32453
B          5.27785       -1.64462        0.56078
B          6.40326       -0.65961        1.13949
B          6.39502        0.87088        1.15093
B         -1.80716       -0.82624       -0.85095
B          3.07011       -1.48759        0.38201
B         -0.37152        1.77525       -0.91420
B         -5.94188        1.60941        0.73482
B         -6.11495       -0.05445        0.78227
B         -5.92533       -1.73975        0.77884
B          0.96476        0.32070        0.17619
