45
isomer_3175.log	Energy: -113425.7998425
B          2.54219       -1.36989        0.80526
B          2.68899       -3.26996        0.01437
B          1.38476       -4.02557       -0.31844
B         -0.12859       -3.26807        0.12743
B          1.17994       -0.86634        1.56767
B         -1.70307       -0.80002        0.72186
B         -1.45994       -4.04635       -0.55476
B          4.01844       -0.75181        0.43340
B         -1.63270       -2.46690        0.19996
B          3.86237       -2.31313        0.06220
B         -0.03055       -4.61434       -0.67978
B         -2.92825       -3.26812       -0.43845
B         -3.10813       -1.75679        0.21414
B         -4.63012       -0.98480        0.25844
B         -0.31038        1.78305        0.95724
B         -1.80200        2.46263        0.45606
B         -3.19465        1.63171        0.31103
B         -4.56942        0.67143       -0.07377
B         -4.55444        2.33947       -0.51286
B         -3.14986        3.15474       -0.27620
B         -1.78350        4.04764       -0.38212
B         -0.36835        3.30437        0.28871
B         -0.41489        4.64541       -0.60855
B          2.42301        3.32815       -0.28520
B          1.01444        4.08149       -0.43735
B          2.51013        1.71871        0.24553
B          3.83045        2.53853       -0.35391
B          3.94052        0.99195        0.15800
B          1.12352        2.56825        0.46082
B          1.33138       -2.30605        0.09949
B         -3.26886       -0.08254        0.70735
B          1.21850        0.77205        0.61482
B         -4.38016       -2.52302       -0.59086
B          5.27303       -1.53046       -0.33252
B          5.31077        0.13697       -0.06128
B          5.22158        1.72221       -0.69055
B          6.35241        0.78587       -1.15888
B          6.38505       -0.68955       -1.00708
B         -1.78758        0.79818        1.01549
B          1.09846       -0.66748       -0.17062
B         -0.16659       -1.65443        0.65195
B         -5.51000       -1.58858       -0.96559
B         -5.87422       -0.09941       -0.84425
B         -5.75289        1.44468       -0.81851
B         -0.20077        0.01614        1.19034
