45
isomer_3177.log	Energy: -113435.8948365
B         -2.46143        1.78524        0.46765
B         -2.44271        3.43887       -0.04998
B         -1.07515        4.20310       -0.24705
B          0.35214        3.41494        0.31320
B         -1.16961        0.94687        1.02416
B          1.75616        0.90173        0.82388
B          1.74471        4.13652       -0.46457
B         -3.80066        0.97499        0.16559
B          1.78801        2.54614        0.32501
B         -3.80228        2.62349       -0.10584
B          0.34040        4.75243       -0.55970
B          3.10276        3.26919       -0.42796
B          3.16444        1.70234        0.16552
B          4.56357        0.78323       -0.11576
B          0.31272       -1.66838        1.31785
B          1.61701       -2.47306        0.57865
B          3.08982       -1.70104        0.40834
B          4.50741       -0.88250       -0.01018
B          4.32137       -2.51673       -0.51813
B          2.92008       -3.26595       -0.07539
B          1.50025       -3.96250       -0.23807
B         -0.01782       -3.23161        0.38598
B          0.17162       -4.41716       -0.73928
B         -2.60156       -3.19845       -0.86928
B         -1.24156       -3.97995       -0.92876
B         -2.45116       -1.72083        0.44917
B         -3.73514       -2.21473       -0.60133
B         -3.76108       -0.75473        0.09399
B         -1.78079       -3.33684        0.48662
B         -1.12608        2.66634        0.70519
B          3.28207        0.01643        0.70337
B         -1.26070       -0.64545        1.04456
B          4.42297        2.38295       -0.80621
B         -5.15110        1.81193       -0.50146
B         -5.16688        0.14843       -0.14255
B         -5.15233       -1.43140       -0.72376
B         -6.29239       -0.54993       -1.16694
B         -6.25744        0.93487       -1.10391
B          1.68808       -0.77468        0.97787
B         -1.12442       -2.29379        1.44064
B          0.36431        1.89580        1.01510
B          5.49345        1.40434       -1.25573
B          5.66330       -0.13881       -1.14522
B          5.44052       -1.67314       -1.06117
B          0.26512        0.09150        0.96589
