45
isomer_3178.log	Energy: -113659.8218660
B          2.31871        1.36961       -0.23178
B          1.89332        2.69949        0.99747
B          0.53373        3.46116        0.92836
B         -0.70174        3.01470       -0.31882
B          0.99499        0.64875       -0.83693
B         -1.99311        0.55975       -1.26162
B         -2.23987        3.59727        0.21460
B          3.93210        1.68909       -0.61328
B         -2.14378        2.17639       -0.79666
B          3.34271        2.03272        1.03551
B         -0.94647        4.01460        0.88408
B         -3.58938        2.78810       -0.18166
B         -3.48524        1.21640       -0.73238
B         -4.78013        0.11217       -0.42035
B         -0.32680       -1.99043       -1.89832
B         -0.75912       -1.85103       -0.08186
B         -2.53528       -1.82502       -0.03028
B         -4.12703       -1.25057        0.36371
B         -3.33279       -2.38128        1.38585
B         -1.79326       -2.67073        1.12167
B         -0.24229       -3.07086        1.04458
B          0.54996       -2.98565       -0.52209
B          1.30989       -3.29893        1.05648
B          0.91486       -1.63216        0.83157
B          2.58191       -2.47878        1.00175
B          2.03435       -0.47142        0.29051
B          3.52089       -1.50736        0.28408
B          3.67547        0.25881        0.44962
B          2.19746       -2.20688       -0.68500
B          0.73051        2.08129        0.03231
B         -3.32719       -0.54802       -0.98263
B          0.82699       -1.04908       -0.91378
B         -4.84537        1.85518        0.06968
B          4.82429        1.57149        0.96907
B          5.13349        0.75926       -0.66623
B          4.99120       -0.85854        0.05932
B          6.37897       -0.38870       -0.15688
B          6.06299        0.65655        0.79321
B         -1.76447       -1.19993       -1.47763
B         -0.44757       -0.12751       -1.45768
B         -0.54155        1.50422       -1.04326
B         -5.72378        0.78743        0.68059
B         -5.50100       -0.66384        1.14918
B         -4.78796       -1.93489        1.62932
B          1.18642       -2.46281       -1.96336
