45
isomer_3180.log	Energy: -113441.9658701
B         -2.47371       -1.74194       -0.39325
B         -2.65954       -3.19379        0.79764
B         -1.38243       -4.10428        0.81280
B         -0.07409       -3.24193       -0.39259
B         -1.28466       -0.63315       -1.02325
B          1.68443       -0.78771       -1.00712
B          1.38303       -3.97926        0.24429
B         -3.68431       -0.64615        0.00662
B          1.55422       -2.48726       -0.56636
B         -3.73724       -2.13636        0.65257
B          0.05274       -4.49950        0.66370
B          2.83159       -3.27119        0.16899
B          3.02623       -1.74246       -0.31718
B          4.41312       -0.90515        0.21238
B          0.39842        1.88176       -0.97131
B          1.84605        2.55153       -0.45593
B          3.21323        1.68027       -0.16158
B          4.64477        0.73021       -0.04783
B          4.49782        2.36449        0.69131
B          3.19134        3.24784        0.35375
B          1.83080        4.13201        0.42417
B          0.43888        3.42745       -0.33892
B          0.45130        4.75215        0.56209
B         -2.37654        3.45091        0.10916
B         -0.98255        4.21699        0.27824
B         -2.45249        1.82274       -0.46925
B         -3.80043        2.69009        0.15624
B         -3.73116        1.01702        0.01283
B         -1.09033        2.68590       -0.57315
B         -1.81780       -3.42207       -0.59038
B          3.25562       -0.02600       -0.65417
B         -1.14850        0.95837       -1.03441
B          4.26760       -2.56173        0.59620
B         -5.16359       -1.31795        0.68400
B         -5.17696        0.23511        0.07987
B         -5.13007        1.93359        0.50798
B         -6.24620        1.00737        1.06214
B         -6.36959       -0.47459        1.00154
B          1.77533        0.86271       -0.72493
B         -1.16892       -2.28497       -1.41912
B          0.27820       -1.65365       -1.30335
B          5.44887       -1.75296        1.08227
B          5.69737       -0.21016        1.10403
B          5.52059        1.33061        1.14523
B          0.24957        0.09509       -0.96597
