45
isomer_3181.log	Energy: -113471.7701402
B          2.49566       -1.75049        0.55243
B          2.34663       -3.12515       -0.52494
B          0.97257       -3.86319       -0.59533
B         -0.23203       -3.30719        0.53670
B          1.19665       -0.77098        0.65865
B         -1.72660       -0.74026        1.08665
B         -1.77926       -4.09616       -0.14407
B          3.89286       -0.89345        0.23847
B         -1.74541       -2.45164        0.49903
B          3.74135       -2.35229       -0.46944
B         -0.44665       -4.51663       -0.60088
B         -3.10103       -3.23548       -0.07323
B         -3.14445       -1.65125        0.49367
B         -4.36854       -0.70547       -0.22062
B         -0.25813        1.77605        0.77339
B         -1.65189        2.57333        0.36136
B         -3.10497        1.84650        0.20841
B         -4.54221        0.93856       -0.01423
B         -4.34205        2.57359       -0.70412
B         -2.96042        3.36936       -0.42031
B         -1.55062        4.18542       -0.44894
B         -0.19736        3.38156        0.30275
B         -0.12591        4.71194       -0.56486
B          2.61984        3.28425       -0.02116
B          1.28816        4.09450       -0.22345
B          2.61582        1.58698        0.75038
B          3.89243        2.41814       -0.03126
B          4.00078        0.84922        0.44630
B          1.25388        2.46966        0.41501
B          1.25556       -2.76568        1.01337
B         -3.20337        0.12805        0.60484
B          1.20757        0.84358        1.00987
B         -4.48673       -2.38171       -0.39391
B          5.12934       -1.60003       -0.72401
B          5.28006       -0.04254       -0.07323
B          5.28475        1.62197       -0.39235
B          6.34349        0.77049       -1.07742
B          6.25927       -0.69022       -1.25110
B         -1.70997        0.91863        0.78183
B          0.95612       -2.04990       -0.57108
B         -0.28200       -1.59350        0.51309
B         -5.60771       -1.48584       -0.86315
B         -5.73423        0.09714       -0.98655
B         -5.47297        1.61267       -1.11831
B         -0.25831        0.01747        1.26174
