45
isomer_3182.log	Energy: -111093.9573948
B         -2.59609       -1.48791       -0.49274
B         -2.64789       -3.12962       -0.13259
B         -1.27275       -4.01276        0.10379
B          0.21474       -3.22699       -0.43245
B         -1.10455       -0.64561       -0.78384
B          1.76748       -0.77779       -0.86208
B          1.57371       -4.07037        0.25039
B         -4.02251       -0.56270       -0.41234
B          1.62879       -2.38486       -0.32122
B         -4.02532       -2.26112        0.02398
B          0.12546       -4.68377        0.37803
B          3.03516       -3.27582        0.27882
B          3.12180       -1.64968       -0.26780
B          4.60834       -0.89613        0.24254
B          0.42650        1.82914       -0.90120
B          1.83130        2.46630       -0.26300
B          3.25780        1.60819       -0.22870
B          4.67586        0.72138        0.26195
B          4.57263        2.28165        0.52540
B          3.30643        3.22233        0.35681
B          1.91630        4.13636        0.34888
B          0.49246        3.42576       -0.35260
B          0.52407        4.86507        0.49263
B         -2.36862        3.56012       -0.05230
B         -0.92492        4.31968        0.20379
B         -2.45345        1.92891       -0.45174
B         -3.81380        2.80593        0.08479
B         -3.95209        1.12412       -0.39210
B         -0.98970        2.69465       -0.60080
B         -1.20109       -2.36918       -0.66157
B          3.27011       -0.11942       -0.64584
B         -1.03701        0.97246       -0.76442
B          4.37519       -2.44823        0.46863
B         -5.31642       -1.40785        0.53421
B         -5.24480        0.22444        0.31987
B         -5.17202        2.05123        0.57573
B         -6.37800        1.13881        1.16344
B         -6.44276       -0.41245        1.14482
B          1.83613        0.86668       -0.84235
B         -1.96330       -2.82407        1.67139
B          0.28261       -1.61774       -0.94257
B          5.91146       -1.80337        0.69522
B          6.17760       -0.10065        0.78127
B          6.05213        1.63588        0.80710
B         -2.05698       -1.71100       -0.90923
