45
isomer_3183.log	Energy: -113420.0210275
B          2.51462       -1.74621        0.28423
B          2.37807       -3.34529       -0.29416
B          0.93549       -4.12946       -0.33561
B         -0.41147       -3.29332        0.26858
B          1.19573       -0.79472        0.70032
B         -1.68943       -0.69348        1.10183
B         -1.88677       -4.07463       -0.12205
B          3.90231       -0.98768        0.03084
B         -1.85556       -2.44342        0.58585
B          3.79940       -2.58897       -0.37885
B         -0.49869       -4.72068       -0.39887
B         -3.21710       -3.18147        0.02343
B         -3.20380       -1.54583        0.53301
B         -4.54700       -0.67950        0.02155
B         -0.22183        1.76607        0.93447
B         -1.52378        2.59117        0.16662
B         -2.93646        1.74375       -0.04275
B         -4.44419        1.01483       -0.09981
B         -4.19479        2.54100       -0.90252
B         -2.81732        3.37396       -0.49930
B         -1.44082        4.18220       -0.39976
B         -0.12022        3.42227        0.58241
B          0.01753        4.69119       -0.41503
B          2.70136        3.19043        0.06933
B          1.35743        4.09661       -0.03542
B          2.67744        1.58841        0.73485
B          3.95823        2.27685       -0.11007
B          3.99566        0.69950        0.29266
B          1.31386        2.51634        0.67463
B          1.10531       -2.54356        0.37788
B         -3.15525        0.12360        0.59845
B          1.21560        0.78824        1.03713
B         -4.56534       -2.37608       -0.35730
B          5.17644       -1.80265       -0.77490
B          5.31647       -0.20102       -0.14463
B          5.34460        1.45211       -0.48491
B          6.41478        0.59366       -1.11745
B          6.27872       -0.88620       -1.30542
B         -1.48444        0.81912        0.15944
B         -0.28246        0.11100        1.62128
B         -0.33128       -1.68199        0.78578
B         -5.60251       -1.44320       -0.92443
B         -5.65779        0.09827       -1.06356
B         -5.32975        1.62485       -1.27980
B         -0.18104       -0.14610       -0.09796
