45
isomer_3184.log	Energy: -112251.2510528
B         -2.54852        1.76081        0.39115
B         -2.52057        3.40043        0.01903
B         -1.10362        4.21767       -0.20721
B          0.33988        3.36843        0.35198
B         -1.10077        0.85307        0.70566
B          1.77322        0.85375        0.81688
B          1.74397        4.14336       -0.32060
B         -4.01499        0.90154        0.30033
B          1.71486        2.46141        0.26330
B         -3.93463        2.59499       -0.14776
B          0.32704        4.82167       -0.46957
B          3.16754        3.28232       -0.32627
B          3.17296        1.65804        0.23260
B          4.62900        0.83321       -0.25492
B          0.31332       -1.68845        0.85824
B          1.69453       -2.39422        0.24110
B          3.15931       -1.60284        0.21769
B          4.62222       -0.78580       -0.26232
B          4.45032       -2.34160       -0.51615
B          3.14031       -3.22184       -0.35600
B          1.70959       -4.07095       -0.35815
B          0.31201       -3.29047        0.32154
B          0.28704       -4.73599       -0.51327
B         -2.54859       -3.29549       -0.01158
B         -1.13853       -4.12246       -0.24534
B         -2.56283       -1.65916        0.37551
B         -3.95586       -2.47674       -0.17095
B         -4.02206       -0.78685        0.29261
B         -1.13768       -2.49021        0.54715
B         -1.11646        2.57830        0.57032
B          3.24633        0.12545        0.62296
B         -1.10755       -0.76649        0.69826
B          4.47014        2.39265       -0.49451
B         -5.25769        1.79814       -0.66727
B         -5.26373        0.16593       -0.44079
B         -5.27218       -1.66413       -0.68310
B         -6.42807       -0.70169       -1.29131
B         -6.42157        0.85101       -1.28421
B          1.76633       -0.79224        0.80936
B         -2.69050       -0.72804        1.62262
B          0.32776        1.76161        0.87401
B          5.97760        1.67621       -0.69847
B          6.16606       -0.03752       -0.76957
B          5.96110       -1.76661       -0.78483
B         -0.32606       -1.08022        0.14186
