45
isomer_3185.log	Energy: -113222.3735555
B          2.69975       -1.38097        0.87789
B          2.79051       -3.11098        0.17097
B          1.51764       -3.97154       -0.10221
B         -0.03104       -3.17427        0.02907
B          1.13590       -0.45493        0.13704
B         -1.48829       -0.81751        0.72608
B         -1.35810       -4.16150       -0.27790
B          4.04677       -0.60357        0.35389
B         -1.45112       -2.39396        0.01675
B          4.03399       -2.21136        0.06581
B          0.12616       -4.69876       -0.28420
B         -2.80833       -3.34306       -0.35179
B         -2.94769       -1.79264        0.16117
B         -4.33750       -0.98063       -0.33691
B         -0.45066        1.75407        1.00044
B         -1.88646        2.50509        0.50140
B         -3.25319        1.61092        0.29325
B         -4.61975        0.62274       -0.07254
B         -4.68489        2.28736       -0.40714
B         -3.31415        3.18581       -0.12218
B         -1.99180        4.09144       -0.22271
B         -0.50723        3.41991        0.53480
B         -0.60032        4.67442       -0.45474
B          2.22075        3.26296       -0.26910
B          0.81690        4.10205       -0.26988
B          2.42798        1.72890        0.50283
B          3.61710        2.54716       -0.41331
B          3.89873        1.08822        0.20286
B          1.00328        2.60696        0.57830
B          1.35368       -2.23110        0.26433
B         -3.10375       -0.07054        0.41231
B          1.05912        0.89557        0.92280
B         -4.24746       -2.64107       -0.60767
B          5.29653       -1.35176       -0.52270
B          5.25816        0.30796       -0.25682
B          5.05006        1.88300       -0.83959
B          6.16212        1.03066       -1.45714
B          6.26391       -0.44540       -1.33409
B         -1.72485        0.81948        0.78326
B          1.38307       -1.00078        1.71178
B         -0.10497       -1.39942        1.39418
B         -5.51982       -1.79800       -0.96057
B         -5.82503       -0.27704       -0.90504
B         -5.79530        1.32296       -0.82817
B         -0.11042       -1.43684       -0.34483
