45
isomer_3186.log	Energy: -113746.4985140
B         -2.83250       -1.02344       -0.39714
B         -3.32134       -2.03037       -1.86618
B         -2.59890       -3.00790       -0.70274
B         -1.25987       -2.03338        0.03208
B         -1.14562       -0.49021       -0.57785
B          1.41866       -1.19674       -1.30206
B         -0.34278       -3.38619        0.78124
B         -2.42535        0.74152       -0.35079
B          0.42900       -2.28057       -0.28381
B         -4.20585       -2.09202       -0.61961
B         -1.89507       -3.47696        0.75571
B          1.23078       -3.28964        0.81497
B          2.08580       -2.11749        0.05151
B          3.66864       -1.82187        0.53848
B          0.77453        1.72949       -1.16608
B          2.47628        2.02746       -0.80628
B          3.55595        0.80646       -0.55836
B          4.55928       -0.54226       -0.13312
B          4.91340        1.11509        0.38840
B          3.96474        2.33655       -0.02634
B          2.88083        3.51456        0.02582
B          1.28978        3.25942       -0.64366
B          1.70473        4.42037        0.36899
B         -1.38097        3.88772        0.41664
B          0.15650        4.30037        0.32445
B         -1.88395        2.31986        0.01988
B         -2.91003        3.41641        0.89900
B         -3.34312        1.76343        0.64308
B         -0.32259        2.81473       -0.25505
B         -1.76125       -1.88062       -1.82726
B          3.02730       -0.89122       -0.77841
B         -0.79458        1.17519       -0.63721
B          2.82964       -3.16449        1.18754
B         -4.30974       -1.40472        0.88186
B         -3.94918        0.21327        0.20039
B         -4.27075        2.89976        1.27265
B         -4.88113        1.42451        1.26046
B         -4.96337       -0.06134        1.41194
B          1.98080        0.45505       -1.10956
B         -3.12432       -2.49429        0.87362
B          0.28076        0.12634       -1.42808
B          4.27315       -2.85531        1.59752
B          5.12856       -1.58363        1.35703
B          5.46848       -0.11606        1.11736
B         -0.17535       -1.50682       -1.75106
