45
isomer_3187.log	Energy: -112331.8676831
B          2.62052       -1.60461        0.37296
B          2.62575       -3.23527       -0.03760
B          1.22587       -4.07330       -0.29224
B         -0.23679       -3.26456        0.27714
B          1.15402       -0.73174        0.69907
B         -1.72008       -0.78874        0.79129
B         -1.62186       -4.04957       -0.42263
B          4.07108       -0.71618        0.31194
B         -1.62803       -2.38157        0.20064
B          4.02539       -2.39983       -0.17617
B         -0.19152       -4.69759       -0.57809
B         -3.06133       -3.21539       -0.41754
B         -3.10079       -1.60509        0.17913
B         -4.56909       -0.79637       -0.29855
B         -0.30861        1.77862        0.90174
B         -1.69905        2.47278        0.29218
B         -3.14849        1.65493        0.24061
B         -4.59276        0.82220       -0.26803
B         -4.44865        2.38648       -0.48424
B         -3.15646        3.28704       -0.29491
B         -1.74200        4.16256       -0.26776
B         -0.33418        3.39257        0.40268
B         -0.33131        4.85753       -0.39789
B          2.52782        3.45888        0.08865
B          1.10389        4.26462       -0.13499
B          2.57050        1.81445        0.43744
B          3.95121        2.67055       -0.08055
B          4.04638        0.97175        0.34378
B          1.12891        2.61446        0.61906
B          1.20304       -2.45271        0.52350
B         -3.20543       -0.08374        0.60475
B          1.13033        0.88739        0.72961
B         -4.37940       -2.34651       -0.57350
B          5.33638       -1.56640       -0.66816
B          5.31028        0.05986       -0.40351
B          5.28574        1.89495       -0.60288
B          6.46327        0.96884       -1.22581
B          6.48598       -0.58344       -1.25508
B         -1.74415        0.85681        0.82232
B          0.81175       -2.74095        1.57331
B         -0.25815       -1.67052        0.83669
B         -5.89881       -1.65377       -0.77059
B         -6.11908        0.05734       -0.80281
B         -5.94664        1.78983       -0.77626
B          0.36456       -0.46659       -0.01872
