45
isomer_3188.log	Energy: -113442.4001744
B          2.32744        1.58408       -0.46892
B          2.41395        3.30537       -0.09388
B          1.08448        4.17759        0.10732
B         -0.36601        3.51867       -0.52866
B          0.82995        0.90267       -0.82727
B         -1.58633        0.84352       -0.84301
B         -1.70279        4.18919        0.32375
B          3.79351        0.86293       -0.25335
B         -1.77585        2.61347       -0.50098
B          3.70874        2.47932        0.13663
B         -0.30300        4.78906        0.42529
B         -3.04279        3.28008        0.35643
B         -2.99110        1.66382       -0.04361
B         -4.36929        0.76091        0.34332
B         -0.36985       -1.91493       -1.49460
B         -1.72421       -2.55908       -0.75300
B         -3.06726       -1.71299       -0.40451
B         -4.42392       -0.85833       -0.05250
B         -4.35357       -2.49842        0.45388
B         -3.03754       -3.34438       -0.01499
B         -1.67383       -3.97999        0.25822
B         -0.11668       -3.26015       -0.48903
B         -0.29892       -4.30477        0.76020
B          2.40019       -3.09303        0.25642
B          1.10464       -3.83008        0.61172
B          2.59355       -1.76458       -0.71753
B          3.87521       -2.37790        0.23028
B          3.80052       -0.79747       -0.26891
B          1.17584       -2.09418       -1.29509
B          1.03883        2.62866       -0.72828
B         -3.05518        0.03090       -0.54017
B          2.00936       -0.16657       -0.72827
B         -4.33334        2.42608        0.81677
B          5.03707        1.72803        0.63960
B          4.97746        0.03984        0.52765
B          5.14865       -1.63546        0.73842
B          6.20613       -0.66163        1.31822
B          6.18223        0.84497        1.23348
B         -1.46946       -0.82501       -0.84953
B          0.97896       -2.08091        0.42475
B         -0.41983        1.94406       -1.20217
B         -5.46434        1.48701        1.24937
B         -5.63645       -0.04597        1.14281
B         -5.37565       -1.56945        1.05593
B          0.27046       -0.72498       -0.31220
