45
isomer_3189.log	Energy: -113749.0251627
B         -2.00837       -2.39479       -0.53821
B         -1.25457       -3.16796        1.00025
B          0.21918       -3.84279        0.89202
B          1.31926       -3.32114       -0.33689
B         -0.76293       -1.67238       -1.50874
B          1.80216       -0.60676       -0.90514
B          2.91544       -3.41545        0.35271
B         -3.25771       -1.34999       -0.29594
B          2.47938       -2.17830       -0.84056
B         -2.35404       -2.07116        1.22904
B          1.73084       -4.12312        0.97783
B          4.04438       -2.34828       -0.06186
B          3.42847       -0.88998       -0.35052
B          4.41182        0.48985       -0.02482
B         -0.52913        1.12364       -0.51931
B          0.51821        2.44493       -0.16817
B          2.15436        2.29216       -0.20495
B          3.80927        2.08010       -0.20104
B          3.10342        3.50505        0.50995
B          1.47615        3.75741        0.21962
B         -0.09362        4.02475        0.19479
B         -1.16905        2.65136       -0.28611
B         -1.62933        4.10917        0.16917
B         -3.88402        2.01329       -0.20993
B         -2.77187        3.13263       -0.09095
B         -3.25788        0.30810       -1.30119
B         -4.97141        0.85835       -0.58973
B         -4.52606       -0.64631       -1.13817
B         -2.23523        1.32114       -0.54799
B         -0.40044       -2.99934       -0.46469
B          2.83701        0.74785       -0.66003
B         -1.63215       -0.41094       -0.84503
B          5.01113       -1.10225        0.29878
B         -3.55060       -1.08010        1.57288
B         -3.41142        0.44870        0.53075
B         -4.87012       -0.66087        0.43149
B         -4.99908        1.16356        0.99882
B         -4.50273        0.06079        1.94601
B          1.11344        0.87387       -0.46833
B         -0.85383       -1.50138        0.54516
B          0.87669       -1.96915       -1.39755
B          5.75508        0.19420        0.74154
B          5.30889        1.67971        0.79096
B          4.47925        3.01078        0.90836
B          0.13176       -0.53898       -0.35427
