45
isomer_3190.log	Energy: -113479.5407932
B          2.89718       -0.92530        1.35946
B          3.41787       -2.37371       -0.29403
B          2.25883       -3.47049        0.06014
B          0.59094       -2.92257        0.18262
B          1.37115       -0.30431        1.39562
B         -1.47842       -0.97079        0.87975
B         -0.47620       -4.06641       -0.49273
B          3.96612        0.08337        0.51298
B         -1.03403       -2.56783        0.33546
B          4.33445       -1.49472        0.78814
B          1.01631       -4.33540       -0.42438
B         -2.05431       -3.59352       -0.49947
B         -2.59729       -2.15132        0.12487
B         -4.19930       -1.62852       -0.10907
B         -0.64506        1.88206        1.23384
B         -2.18494        2.27485        0.69842
B         -3.39066        1.18920        0.39104
B         -4.46652        0.00660       -0.26943
B         -4.70505        1.67024       -0.66477
B         -3.58353        2.72234       -0.13935
B         -2.42885        3.86597       -0.12843
B         -0.94386        3.38828        0.62183
B         -1.18847        4.70913       -0.30094
B          1.76059        3.71488       -0.22172
B          0.28926        4.34223       -0.16639
B          2.18591        2.19830        0.48941
B          3.07408        2.97618       -0.73144
B          3.67665        1.61355        0.05490
B          0.70276        2.87624        0.72469
B          1.70148       -2.12690        1.17941
B         -3.17630       -0.54357        0.66075
B          1.00225        1.23357        1.22383
B         -3.55480       -3.09774       -0.90986
B          4.45402       -1.18224       -0.88440
B          4.14675        0.49744       -1.11102
B          3.99133        2.11031       -1.64267
B          4.78084        1.03397       -2.49239
B          4.97517       -0.40512       -2.16482
B         -1.87765        0.58664        1.11336
B          3.23616       -2.62506        1.34259
B         -0.26434        0.12883        1.29499
B         -4.76586       -2.37363       -1.43240
B         -5.38075       -0.95379       -1.35355
B         -5.58072        0.58231       -1.25984
B          0.14683       -1.57355        1.02501
