45
isomer_3192.log	Energy: -113549.1894447
B         -2.06151       -0.96656       -0.47901
B         -1.53340       -2.47712        0.46228
B         -1.01380       -3.89825       -0.36096
B          0.52404       -3.41513       -1.19235
B         -0.95483       -0.96042       -1.76763
B          1.84259       -0.69778       -0.95099
B          1.62966       -3.89694        0.31264
B         -3.64912       -0.67377       -0.15806
B          1.62690       -2.22547       -0.09736
B         -2.80646       -1.68102        0.92715
B          0.31437       -4.59353        0.03421
B          3.00856       -2.99046        0.52809
B          3.13343       -1.46570       -0.06381
B          4.51690       -0.47450        0.22734
B          0.09839        1.65508       -1.14689
B          1.41196        2.54869       -0.53595
B          2.93148        1.98137       -0.33853
B          4.26462        1.16641        0.37513
B          3.96108        2.81454        0.79800
B          2.57828        3.48130        0.23736
B          1.10439        4.16100        0.15880
B         -0.12713        3.18314       -0.57628
B         -0.35531        4.55701        0.22898
B         -2.81527        2.70923        0.03522
B         -1.64177        3.70923        0.05101
B         -2.82743        0.96757       -0.50030
B         -4.20068        2.01724        0.16531
B         -4.51039        0.62972       -0.60367
B         -1.52457        2.11477       -0.75511
B         -1.03989       -2.47015       -1.19605
B          3.27204        0.24846       -0.63597
B         -1.28286        0.50824       -1.24898
B          4.27720       -2.10317        0.98921
B         -4.19285       -1.43364        1.48692
B         -5.20255       -0.40234        0.50825
B         -5.48370        1.29429        0.69751
B         -6.22982        0.26877        1.60336
B         -5.58728       -0.99101        1.98559
B          1.71280        0.94920       -1.12579
B          0.12865       -2.77532        0.45374
B          0.61318       -1.79273       -1.44480
B          5.22422       -1.06476        1.53756
B          5.35500        0.49313        1.50761
B          5.08597        2.02546        1.43737
B          0.42489       -0.03409       -1.57012
