45
isomer_3193.log	Energy: -113411.2251037
B         -2.51244        1.77352        0.63910
B         -2.46208        3.46454        0.03183
B         -1.11064        4.25559       -0.06346
B          0.32698        3.45226        0.50328
B         -1.19948        0.95696        1.18932
B          1.73166        0.89048        0.79841
B          1.69646        4.21722       -0.26634
B         -3.80842        1.01664        0.07216
B          1.75388        2.60233        0.54462
B         -3.75956        2.64171       -0.19403
B          0.29924        4.81856       -0.34772
B          3.04941        3.35600       -0.29013
B          3.11095        1.76113        0.18331
B          4.52838        0.84151       -0.14928
B          0.30699       -1.68210        1.21386
B          1.65349       -2.47416        0.63895
B          3.06719       -1.67941        0.28957
B          4.34494       -0.80540       -0.37417
B          4.24345       -2.46731       -0.75389
B          2.88071       -3.24690       -0.25811
B          1.54933       -4.05049       -0.20067
B          0.17291       -3.27713        0.62254
B          0.10461       -4.60057       -0.38583
B         -2.44196       -3.18832       -0.20549
B         -1.25313       -4.05100       -0.84300
B         -2.46837       -1.51007        0.47091
B         -3.71527       -2.27426       -0.39296
B         -3.76969       -0.70421       -0.01230
B         -1.26070       -2.42586        1.10053
B         -1.15699        2.64608        0.71388
B          3.23287        0.02200        0.58598
B         -1.23581       -0.70791        1.15404
B          4.30809        2.48246       -0.78860
B         -5.06228        1.83197       -0.75763
B         -5.12065        0.16834       -0.40717
B         -5.03949       -1.45348       -0.91876
B         -6.10297       -0.55868       -1.52794
B         -6.08645        0.94069       -1.48699
B          1.71382       -0.76682        1.03609
B         -1.26596       -4.04689        0.73165
B          0.32806        1.88943        1.08086
B          5.30015        1.48616       -1.38744
B          5.52383       -0.04749       -1.37238
B          5.34163       -1.60285       -1.33385
B          0.26328        0.10574        1.11723
