45
isomer_3197.log	Energy: -113437.9006912
B         -2.59489       -1.71502       -0.41989
B         -2.48356       -3.30329        0.25945
B         -1.08604       -4.12041        0.28758
B          0.29332       -3.34051       -0.37424
B         -1.29646       -0.86692       -0.97580
B          1.65764       -0.74453       -0.69807
B          1.73865       -4.14466        0.18710
B         -3.95518       -0.92267       -0.09930
B          1.73946       -2.52069       -0.57871
B         -3.84325       -2.50350        0.39582
B          0.33026       -4.72506        0.43044
B          3.10066       -3.30703        0.03743
B          3.14865       -1.67779       -0.41828
B          4.56572       -0.77291       -0.19387
B          0.32757        1.67253       -1.04770
B          1.49231        2.45710        0.12781
B          2.86856        1.58862       -0.02260
B          4.35835        0.84379        0.30219
B          4.21751        2.49198        0.84386
B          2.88010        3.31279        0.52136
B          1.55629        4.13354        0.40141
B          0.16795        3.30935       -0.47307
B          0.09803        4.65894        0.36260
B         -2.64706        3.21894       -0.20057
B         -1.25550        4.04971       -0.04246
B         -2.65793        1.59025       -0.71682
B         -3.97104        2.36976        0.01176
B         -4.00982        0.77707       -0.25871
B         -1.27826        2.46231       -0.80949
B         -1.20332       -2.55735       -0.52370
B          3.19715        0.05513       -0.77124
B         -1.28582        0.74389       -1.05586
B          4.37736       -2.43584        0.46268
B         -5.19430       -1.68256        0.82712
B         -5.32061       -0.09229        0.24064
B         -5.30330        1.57980        0.54523
B         -6.35092        0.72591        1.24258
B         -6.28192       -0.76061        1.39503
B          1.81228        0.89302       -1.35549
B          1.30121        0.77564        0.31676
B          0.26616       -1.77891       -0.95485
B          5.34811       -1.41845        1.05649
B          5.63080        0.07242        1.09818
B          5.41137        1.63346        1.19785
B          0.13370       -0.02500       -0.56061
