45
isomer_3198.log	Energy: -113473.6055570
B         -2.49978       -1.73312       -0.56011
B         -2.35415       -3.10757        0.51836
B         -0.98493       -3.85237        0.58720
B          0.22296       -3.30667       -0.54132
B         -1.21460       -0.75820       -0.73103
B          1.72562       -0.74462       -1.05914
B          1.76619       -4.09604        0.15494
B         -3.90071       -0.88054       -0.23857
B          1.73540       -2.45587       -0.47713
B         -3.74588       -2.33654        0.46930
B          0.42972       -4.51229        0.60398
B          3.09351       -3.23959        0.08271
B          3.14025       -1.65665       -0.47294
B          4.38058       -0.71214        0.21646
B          0.27061        1.81045       -0.87657
B          1.66484        2.57709       -0.39382
B          3.10629        1.83346       -0.19913
B          4.55154        0.92956        0.00048
B          4.34940        2.56154        0.70031
B          2.97184        3.36048        0.41459
B          1.56279        4.16471        0.47591
B          0.21124        3.37570       -0.29320
B          0.13988        4.67967        0.61691
B         -2.60758        3.26848        0.04204
B         -1.27168        4.06825        0.26477
B         -2.60606        1.57216       -0.74229
B         -3.88744        2.41128        0.04698
B         -4.00911        0.85494       -0.43424
B         -1.24702        2.48171       -0.46142
B         -1.26012       -2.75864       -1.02126
B          3.21236        0.11946       -0.61168
B         -1.19675        0.86864       -1.09234
B          4.47978       -2.38911        0.41400
B         -5.13576       -1.59126        0.72634
B         -5.29268       -0.03341        0.08091
B         -5.28184        1.62610        0.41378
B         -6.34265        0.77787        1.09753
B         -6.26169       -0.68561        1.26432
B          1.71165        0.92033       -0.79738
B         -0.97339       -2.03334        0.55966
B          0.26726       -1.58969       -0.50467
B          5.59837       -1.49797        0.89279
B          5.73387        0.08336        0.99701
B          5.47544        1.60053        1.11617
B          0.27240        0.02545       -1.24924
