45
isomer_0032.log	Energy: -113562.7723459
B          2.94103        2.26183       -0.13516
B          2.62249        3.90100        0.46762
B          1.12841        4.55150        0.24970
B         -0.11674        3.55539       -0.35635
B          1.62447        1.24792       -0.42237
B         -1.33369        0.84122       -0.77268
B         -1.66990        4.32440       -0.11024
B          3.16153        0.60474       -0.13441
B         -1.50866        2.59901       -0.61538
B          3.83006        3.13706        0.89725
B         -0.32883        5.05177        0.14819
B         -2.92820        3.39592       -0.18120
B         -2.85832        1.71509       -0.46408
B         -4.28954        0.88470       -0.23535
B         -0.58165       -2.46870       -1.42048
B         -1.70730       -2.73884       -0.27271
B         -2.69325       -1.58322        0.23329
B         -4.13441       -0.67481        0.36883
B         -4.14927       -2.19971        1.09604
B         -2.85174       -3.12908        0.82617
B         -1.64068       -4.20405        0.72164
B         -0.50862       -3.91504       -0.54846
B         -0.32636       -4.96609        0.64191
B          2.37030       -3.75015       -0.26057
B          1.03615       -4.55114        0.06363
B          2.10240       -2.13108       -0.42694
B          3.62064       -2.74721        0.09044
B          3.38789       -1.09333       -0.13691
B          0.95410       -3.17484       -1.01725
B          1.39162        2.86704       -0.09888
B         -2.79497        0.00032       -0.45928
B          1.82598       -0.44204       -0.59529
B         -4.29984        2.59609        0.05928
B          4.49005        1.71182        0.60411
B          4.46292       -0.05231        0.66353
B          4.80781       -1.78694        0.53232
B          5.92745       -0.70424        0.78683
B          5.81352        0.79051        0.70606
B         -1.24751       -0.96060       -0.78724
B          0.59165       -1.44652       -0.98632
B          0.02233        1.88503       -0.57168
B         -5.43223        1.71622        0.53188
B         -5.56869        0.21020        0.83347
B         -5.34024       -1.27812        1.22061
B          0.19787        0.14926       -0.73358
