45
isomer_3200.log	Energy: -113628.3248960
B          2.42662        1.77010       -0.18965
B          2.40907        3.37952        0.20028
B          1.03323        4.20347        0.18954
B         -0.36535        3.41693       -0.50383
B          1.09633        0.87755       -0.92331
B         -1.79493        0.83592       -0.99417
B         -1.76934        4.16319        0.23258
B          3.77018        0.87822        0.22949
B         -1.78679        2.52611       -0.48407
B          3.81699        2.55259        0.41022
B         -0.38249        4.77945        0.35465
B         -3.09878        3.27294        0.24296
B         -3.17400        1.70282       -0.29795
B         -4.49797        0.76508        0.24936
B         -0.33027       -1.82064       -0.95160
B         -1.73876       -2.56641       -0.53246
B         -3.15594       -1.77759       -0.25902
B         -4.59933       -0.90028       -0.00805
B         -4.39123       -2.54330        0.62260
B         -3.03936       -3.36309        0.22233
B         -1.64416       -4.16823        0.33737
B         -0.26954       -3.35416       -0.33423
B         -0.22262       -4.73094        0.48802
B          2.56543       -3.35154        0.02036
B          1.16383       -4.21317        0.10395
B          2.45619       -0.03031       -0.35719
B          3.96307       -2.55040        0.18263
B          3.87005       -0.85852        0.02680
B          1.20349       -2.51428       -0.51447
B          1.12099        2.64021       -0.64397
B         -3.28670       -0.03331       -0.63011
B          1.10997       -0.82874       -1.00868
B         -4.43312        2.41431        0.68458
B          5.19517        1.75219        0.71762
B          5.18057        0.05194        0.49319
B          5.31420       -1.70449        0.41903
B          6.53139       -0.71975        0.74306
B          6.47677        0.80933        0.93189
B         -1.76573       -0.82346       -0.79211
B          2.44196       -1.66480        0.01466
B         -0.35949        1.84503       -1.05715
B         -5.54753        1.50704        1.17379
B         -5.69304       -0.06167        1.16125
B         -5.44505       -1.58993        1.15595
B         -0.35399        0.02508       -1.12611
