45
isomer_3201.log	Energy: -113420.9514490
B          2.41033       -1.64256        0.41005
B          2.52823       -3.28042        0.17582
B          1.10502       -4.01042       -0.04559
B         -0.30712       -3.31748        0.53726
B          1.05669       -0.83621        0.84678
B         -1.71483       -0.76315        0.87347
B         -1.71142       -4.07873       -0.33276
B          3.91224       -0.80357        0.29799
B         -1.70201       -2.43206        0.34192
B          3.84055       -2.41125       -0.19508
B         -0.33294       -4.61442       -0.44860
B         -3.03190       -3.22137       -0.34494
B         -3.13051       -1.66440        0.22188
B         -4.53744       -0.78253       -0.16882
B         -0.35327        1.71693        0.96581
B         -1.76261        2.48915        0.40485
B         -3.19862        1.71956        0.27785
B         -4.59767        0.86171       -0.08276
B         -4.51185        2.51666       -0.55933
B         -3.11393        3.29208       -0.23512
B         -1.71724        4.12540       -0.28306
B         -0.34756        3.39471        0.45047
B         -0.30564        4.71365       -0.40913
B          2.51428        3.38596        0.01497
B          1.09430        4.16309       -0.12129
B          2.55830        1.76913        0.55924
B          3.87367        2.61359       -0.16846
B          3.95903        0.95876        0.34418
B          1.14756        2.56377        0.61534
B          1.22050       -2.69056        1.05287
B         -3.23208        0.03516        0.58184
B          1.10692        0.88783        0.85984
B         -4.43673       -2.40778       -0.66389
B          5.05308       -1.61830       -0.78524
B          5.10335        0.08493       -0.51313
B          5.10322        1.79598       -0.68941
B          6.16560        0.86305       -1.42497
B          6.13607       -0.66419       -1.46875
B         -1.73486        0.85408        0.85090
B          2.57111        0.05647        0.75357
B         -0.32763       -1.67111        1.03906
B         -5.61671       -1.52140       -1.06611
B         -5.83885        0.04355       -1.01496
B         -5.66312        1.60251       -1.01042
B          0.76648       -2.07580       -0.44416
