45
isomer_3202.log	Energy: -112593.1191496
B          2.74102        1.75878       -0.38290
B          2.64638        3.42457       -0.06188
B          1.22924        4.25050        0.15552
B         -0.24211        3.42890       -0.37531
B          0.98730        0.58778       -0.85569
B         -1.76160        0.86415       -0.83458
B         -1.61049        4.20519        0.31127
B          4.07296        0.83366       -0.34040
B         -1.64547        2.53732       -0.26338
B          4.06622        2.55004        0.09497
B         -0.19452        4.83230        0.42486
B         -3.03040        3.37671        0.34432
B         -3.10841        1.74492       -0.21813
B         -4.57438        0.91924        0.27069
B         -0.40364       -1.78180       -0.91973
B         -1.78934       -2.46987       -0.28250
B         -3.20067       -1.61420       -0.23351
B         -4.60621       -0.73696        0.26014
B         -4.51385       -2.31986        0.52425
B         -3.19901       -3.24952        0.32633
B         -1.81090       -4.15058        0.29610
B         -0.41176       -3.42381       -0.39640
B         -0.40845       -4.82948        0.40709
B          2.45999       -3.45499       -0.08379
B          1.01657       -4.29966        0.13788
B          2.53166       -1.79369       -0.44609
B          3.90739       -2.58226        0.08538
B          4.01889       -0.91355       -0.35566
B          1.03818       -2.69156       -0.63801
B          1.17747        2.65568       -0.59624
B         -3.24028        0.14370       -0.62324
B          1.02764       -0.87658       -0.81718
B         -4.40305        2.51383        0.53732
B          5.33862        1.67474        0.59472
B          5.27957        0.02431        0.36063
B          5.21780       -1.78867        0.57851
B          6.37642       -0.85775        1.16345
B          6.45636        0.65318        1.17595
B         -1.81086       -0.82749       -0.84128
B          1.53365        1.30191       -0.27584
B         -0.34986        1.72699       -0.90876
B         -5.83477        1.74018        0.72471
B         -6.04709        0.08486        0.77472
B         -5.90554       -1.57669        0.77920
B          0.97930       -1.59449        0.42249
