45
isomer_3203.log	Energy: -113360.6725926
B         -2.69238        1.50707        0.80683
B         -2.70501        3.17493        0.11767
B         -1.39817        4.02004       -0.01979
B          0.11263        3.35129        0.54631
B         -1.24273        0.77307        1.13081
B          1.72097        0.96239        0.83060
B          1.41121        4.15815       -0.33740
B         -4.06184        0.72078        0.30341
B          1.61643        2.58707        0.40747
B         -3.95794        2.29262       -0.05923
B         -0.03462        4.64754       -0.37772
B          2.82810        3.41880       -0.44609
B          3.05129        1.88489        0.11148
B          4.45647        1.02187       -0.38852
B          0.14803       -1.77240        1.08037
B          1.79112       -2.41051        1.02839
B          3.21786       -1.58644        0.36734
B          4.27513       -0.63734       -0.59267
B          4.31726       -2.33961       -0.66353
B          3.07979       -3.13329        0.07900
B          1.79176       -4.02901       -0.01565
B          0.38962       -3.20051        0.25587
B          0.44587       -4.59317       -0.46825
B         -2.39402       -3.27878       -0.46959
B         -0.98856       -3.97735       -0.50379
B         -2.54729       -1.60333        0.30330
B         -3.71196       -2.47914       -0.63323
B         -3.96423       -0.98575        0.03229
B         -1.12911       -2.35131        0.14271
B         -1.30763        2.38344        0.58448
B          3.24796        0.18322        0.46310
B         -1.22453       -0.79326        0.78658
B          4.12707        2.59163       -1.03194
B         -5.28934        1.50993       -0.59477
B         -5.32215       -0.15579       -0.33329
B         -5.12201       -1.71820       -0.98157
B         -6.20196       -0.80275       -1.58053
B         -6.29752        0.66526       -1.39073
B          2.05776       -0.64273        1.30182
B          0.30156       -0.02302        1.53328
B          0.23737        1.71735        1.05081
B          5.12739        1.63748       -1.67829
B          5.43499        0.08894       -1.59911
B          5.36248       -1.44836       -1.39610
B          1.04287       -1.33576        2.29783
