45
isomer_3204.log	Energy: -113420.5682107
B          2.67630       -1.59635        0.72138
B          2.70681       -3.19992        0.07103
B          1.35724       -4.10392       -0.03978
B         -0.12047       -3.42572        0.57118
B          1.21786       -0.78653        1.00890
B         -1.48125       -0.81894        0.13619
B         -1.44147       -4.18108       -0.40901
B          3.97936       -0.69658        0.26447
B         -1.52398       -2.59195        0.16235
B          3.96500       -2.28525       -0.10375
B          0.01761       -4.69411       -0.42559
B         -2.81604       -3.37222       -0.51044
B         -2.93038       -1.73501       -0.07453
B         -4.44720       -1.02129       -0.07084
B         -0.33094        1.68411        0.76618
B         -1.85272        2.43872        0.58069
B         -3.19939        1.54379        0.53013
B         -4.54831        0.67259        0.04093
B         -4.57488        2.37513       -0.33193
B         -3.22119        3.17980        0.02787
B         -1.89308        4.07425       -0.12895
B         -0.41588        3.29026        0.24392
B         -0.50489        4.72677       -0.40310
B          2.37700        3.35403       -0.30292
B          0.93310        4.14040       -0.34340
B          2.50647        1.74962        0.26723
B          3.79867        2.59138       -0.39346
B          3.88244        0.97944       -0.02016
B          1.10658        2.55493        0.37071
B          1.31170       -2.52212        0.65709
B         -3.15039       -0.12411        0.59981
B          1.19233        0.79873        0.69683
B         -4.19966       -2.53958       -0.89688
B          5.35917       -1.44848       -0.44926
B          5.31765        0.20797       -0.10848
B          5.18180        1.80736       -0.76532
B          6.30420        0.89090       -1.25056
B          6.44657       -0.58734       -1.04518
B         -1.68361        0.68717        1.09893
B         -0.17559        0.14201       -0.10926
B         -0.22123       -1.76431        0.91880
B         -5.33727       -1.62293       -1.25421
B         -5.67174       -0.09989       -1.02745
B         -5.62118        1.44091       -0.88142
B         -0.27510       -0.11262        1.61124
