45
isomer_3207.log	Energy: -113675.8826897
B         -2.56519        1.72931        0.53325
B         -2.51735        3.30327       -0.03448
B         -1.16123        4.14882       -0.10654
B          0.26573        3.40320        0.54065
B         -1.17196        0.85091        1.06997
B          1.71564        0.84408        0.78151
B          1.63804        4.17151       -0.25733
B         -3.98482        0.84284        0.22466
B          1.72140        2.55244        0.42762
B         -3.87163        2.48310       -0.27414
B          0.21490        4.74831       -0.35085
B          3.00541        3.34374       -0.27894
B          3.12745        1.73599        0.21960
B          4.54615        0.89771       -0.14407
B          0.37167       -1.82441        1.11809
B          1.80485       -2.53206        0.49193
B          3.17501       -1.67864        0.26154
B          4.53150       -0.79419       -0.24117
B          4.40901       -2.44272       -0.74826
B          3.09524       -3.27897       -0.26414
B          1.75225       -4.14403       -0.24316
B          0.35430       -3.38416        0.51491
B          0.34646       -4.74648       -0.34938
B         -2.42419       -3.33632       -0.04031
B         -1.04342       -4.15788       -0.12226
B         -2.50707       -1.76078        0.48673
B         -3.80726       -2.53930       -0.29427
B         -3.95516       -0.91317        0.21482
B         -1.11698       -2.59021        0.76321
B         -1.18832        2.57669        0.79043
B          3.29343        0.01786        0.60914
B         -1.12806       -0.84896        1.04022
B          4.32250        2.50233       -0.77239
B         -5.10504        1.64835       -0.84525
B         -5.19510       -0.04784       -0.52372
B         -5.05833       -1.74205       -0.86639
B         -6.08239       -0.81783       -1.61479
B         -6.10403        0.70272       -1.60700
B          1.79014       -0.82964        0.91551
B         -2.60928       -0.01755        0.74567
B          0.31127        1.83006        1.08607
B          5.36749        1.57140       -1.34172
B          5.61858        0.03596       -1.30648
B          5.47547       -1.51634       -1.30082
B          0.34294        0.00295        1.09237
