45
isomer_3208.log	Energy: -113675.8853880
B         -2.56311        1.73048        0.53084
B         -2.51331        3.30381       -0.03631
B         -1.15639        4.14910       -0.10870
B          0.26926        3.40272        0.53856
B         -1.17046        0.85128        1.06966
B          1.71825        0.84337        0.78916
B          1.64237        4.16966       -0.25870
B         -3.98391        0.84542        0.22466
B          1.72469        2.55114        0.43010
B         -3.86919        2.48512       -0.27551
B          0.22020        4.74791       -0.35322
B          3.00893        3.34041       -0.27897
B          3.12937        1.73364        0.22179
B          4.54663        0.89385       -0.14610
B          0.36860       -1.82537        1.11740
B          1.80168       -2.53275        0.48881
B          3.17297       -1.68050        0.26029
B          4.53195       -0.79816       -0.23752
B          4.40609       -2.44448       -0.74981
B          3.09148       -3.28060       -0.26600
B          1.74770       -4.14441       -0.24581
B          0.35081       -3.38516        0.51553
B          0.34148       -4.74633       -0.35097
B         -2.42779       -3.33471       -0.04057
B         -1.04773       -4.15748       -0.12288
B         -2.50916       -1.75986        0.48794
B         -3.80999       -2.53684       -0.29355
B         -3.95644       -0.91032        0.21531
B         -1.11953       -2.59001        0.76502
B         -1.18559        2.57752        0.78940
B          3.29373        0.01615        0.60912
B         -2.60955       -0.01660        0.74600
B          4.32676        2.49918       -0.77080
B         -5.10420        1.65222       -0.84517
B         -5.19567       -0.04413       -0.52283
B         -5.06052       -1.73813       -0.86572
B         -6.08417       -0.81308       -1.61366
B         -6.10431        0.70757       -1.60594
B          1.78587       -0.83028        0.91050
B         -1.13002       -0.84832        1.04235
B          0.31332        1.83054        1.08724
B          5.37421        1.56951       -1.33798
B          5.61977        0.03309       -1.30503
B          5.47235       -1.51889       -1.30223
B          0.34255        0.00272        1.09429
