45
isomer_3209.log	Energy: -112591.9305482
B          2.61257       -1.65184        0.34183
B          2.61170       -3.28399       -0.06276
B          1.20853       -4.11901       -0.30909
B         -0.24971       -3.30408        0.26277
B          1.14975       -0.77365        0.67022
B         -1.72413       -0.82223        0.77338
B         -1.63959       -4.08774       -0.42893
B          4.06537       -0.76772        0.27214
B         -1.63876       -2.41746        0.18823
B          4.01314       -2.45302       -0.20962
B         -0.21166       -4.74035       -0.58736
B         -3.07669       -3.24950       -0.42153
B         -3.10941       -1.63692        0.16937
B         -4.57721       -0.82583       -0.30578
B         -0.30507        1.74154        0.86914
B         -1.69584        2.43737        0.26224
B         -3.14774        1.62342        0.21908
B         -4.59624        0.79291       -0.28110
B         -4.44855        2.35598       -0.50359
B         -3.15315        3.25358       -0.32239
B         -1.73615        4.12520       -0.30373
B         -0.32799        3.35371        0.36427
B         -0.32401        4.81572       -0.44167
B          2.53299        3.41082        0.03931
B          1.11050        4.21974       -0.18197
B          2.57237        1.76757        0.39396
B          3.95352        2.61787       -0.13231
B          4.04553        0.92038        0.29788
B          1.13372        2.57228        0.57804
B          1.19330       -2.49539        0.50078
B         -3.20818       -0.11374        0.58980
B          1.13071        0.84564        0.69490
B         -4.39290       -2.37748       -0.57575
B          5.32461       -1.62508       -0.70955
B          5.30405        0.00220       -0.45078
B          5.28391        1.83662       -0.65678
B          6.45650        0.90493       -1.28070
B          6.47475       -0.64751       -1.30437
B         -1.74348        0.82349        0.79846
B          1.24791       -1.36819        2.47995
B         -0.26451       -1.70795        0.81655
B         -5.91109       -1.68120       -0.76970
B         -6.12668        0.03040       -0.80737
B         -5.94929        1.76248       -0.78783
B          0.13259       -0.06400        0.25232
