45
isomer_0321.log	Energy: -113201.5193815
B         -2.63335        1.71778        0.43990
B         -2.57017        3.40409        0.04921
B         -1.21593        4.18803       -0.13017
B          0.25731        3.38460        0.41644
B         -1.29049        0.74748        0.73970
B          1.77240        0.83333        0.85908
B          1.60510        4.12786       -0.29249
B         -4.04017        0.87566        0.33159
B          1.65734        2.52410        0.30835
B         -3.96600        2.54201       -0.11575
B          0.19662        4.76870       -0.40292
B          3.00684        3.25887       -0.32038
B          3.08742        1.72892        0.22405
B          4.49604        0.88394       -0.27518
B          0.34571       -1.66424        0.86685
B          1.78126       -2.44978        0.16595
B          3.18317       -1.59104        0.15264
B          4.49659       -0.74277       -0.29100
B          4.52871       -2.39723       -0.68881
B          3.09071       -3.21327       -0.44134
B          1.66991       -4.02566       -0.44681
B          0.26174       -3.35947        0.31777
B          0.22278       -4.63361       -0.59097
B         -2.61408       -3.33240       -0.05037
B         -1.23912       -4.08929       -0.29089
B         -2.67232       -1.64692        0.43115
B         -4.00801       -2.42461       -0.24706
B         -4.06228       -0.84192        0.29499
B         -1.30739       -2.57379        0.58897
B         -1.25978        2.57655        0.62630
B          3.25444        0.08129        0.55872
B         -1.22607       -0.78711        0.80834
B          4.42463        2.55896       -0.58138
B         -5.22199        1.78452       -0.64104
B         -5.26055        0.10224       -0.44344
B         -5.27115       -1.62104       -0.75529
B         -6.36425       -0.62192       -1.37480
B         -6.35628        0.85902       -1.34377
B          1.77897       -0.88533        0.75333
B         -0.28126       -2.30076        1.84907
B          0.16927        1.81392        0.96790
B          5.70534        1.70952       -0.84103
B          5.88648        0.12510       -0.89868
B          5.72141       -1.49635       -0.95533
B          0.26048        0.10204        0.66859
