45
isomer_3211.log	Energy: -113222.4503727
B         -2.40818       -1.68952       -0.73955
B         -2.42686       -3.29898       -0.11431
B         -1.11670       -4.12132        0.04621
B          0.32869       -3.48808       -0.57046
B         -0.97653       -1.13310       -1.28869
B          1.59779       -0.83240       -0.70329
B          1.68802       -4.09155        0.52011
B         -3.76528       -0.83511       -0.19768
B          1.67352       -2.49320       -0.19915
B         -3.72876       -2.41959        0.10150
B          0.27216       -4.62175        0.59391
B          3.00620       -3.23433        0.49755
B          3.06588       -1.66280       -0.10232
B          4.44454       -0.73181        0.17318
B          0.31591        1.80817       -1.06934
B          1.60368        2.51979       -0.38151
B          3.03031        1.75085       -0.26452
B          4.42471        0.89763        0.10558
B          4.33647        2.56011        0.51707
B          2.96309        3.34033        0.19441
B          1.57957        4.15601        0.27985
B          0.22915        3.45676       -0.58449
B          0.18305        4.73513        0.40558
B         -2.65849        3.56594        0.02319
B         -1.26181        4.31867        0.08272
B         -2.61584        1.85966       -0.46012
B         -3.91719        2.61835        0.27809
B         -3.85764        0.96543       -0.11827
B         -1.29031        2.79114       -0.61103
B         -1.14058       -2.89702       -1.48170
B          3.13979        0.02798       -0.55835
B         -1.28142        1.13530       -0.77948
B          4.34898       -2.30240        0.83321
B         -4.95959       -1.64010        0.79072
B         -4.97729        0.02392        0.54429
B         -5.11578        1.68997        0.86278
B         -6.07941        0.70262        1.55977
B         -5.98958       -0.78398        1.56778
B          1.55027        0.78205       -0.80848
B         -0.93558       -2.31913        0.18171
B          0.38121       -1.90491       -1.05953
B          5.44509       -1.36285        1.25457
B          5.66782        0.18176        1.11219
B          5.48595        1.69345        1.01837
B         -0.25904        0.28292       -1.45209
