45
isomer_3214.log	Energy: -111782.2643731
B          2.61157       -1.67555        0.34950
B          2.60363       -3.31349       -0.03088
B          1.19696       -4.14519       -0.26832
B         -0.25863       -3.31475        0.28778
B          1.15231       -0.78545        0.66121
B         -1.72201       -0.81842        0.75792
B         -1.65068       -4.10176       -0.39570
B          4.06888       -0.79969        0.27035
B         -1.64310       -2.42254        0.19667
B          4.00950       -2.49166       -0.18654
B         -0.22560       -4.76363       -0.54089
B         -3.08364       -3.25647       -0.40428
B         -3.10983       -1.63518        0.16260
B         -4.57246       -0.82404       -0.32816
B         -0.29056        1.73951        0.81925
B         -1.67641        2.43307        0.19866
B         -3.13220        1.62569        0.16394
B         -4.58356        0.79496       -0.32750
B         -4.42763        2.35382       -0.57273
B         -3.12826        3.24766       -0.40161
B         -1.70703        4.11251       -0.39233
B         -0.30431        3.34412        0.29052
B         -0.29117        4.79399       -0.53697
B          2.55769        3.38239       -0.02814
B          1.13975        4.19491       -0.26490
B          2.58811        1.74441        0.35090
B          3.97471        2.58005       -0.18446
B          4.05730        0.88868        0.27104
B          1.15301        2.55880        0.51946
B          1.18778       -2.50969        0.51738
B         -3.20211       -0.10547        0.56018
B          1.14120        0.83411        0.66187
B         -4.39515       -2.38041       -0.57468
B          5.32624       -1.67765       -0.69541
B          5.31309       -0.04663       -0.46081
B          5.30249        1.78461       -0.69399
B          6.47197        0.83805       -1.30113
B          6.48263       -0.71464       -1.30177
B         -1.73330        0.82756        0.75859
B          0.53924       -1.60896        1.25067
B         -0.26689       -1.71053        0.81784
B         -5.90942       -1.67965       -0.78269
B         -6.11648        0.03224       -0.84623
B         -5.93059        1.76353       -0.85188
B          0.48294        0.90679        2.50570
