45
isomer_3215.log	Energy: -111668.8816469
B         -2.67823       -1.59593       -0.38163
B         -2.67883       -3.23100        0.03409
B         -1.27505       -4.06833        0.29596
B          0.20496       -3.24934       -0.26490
B         -1.22380       -0.72219       -0.70756
B          1.69862       -0.72866       -0.79854
B          1.59951       -4.01955        0.44291
B         -4.11743       -0.71368       -0.32137
B          1.60354       -2.35767       -0.18513
B         -4.06971       -2.39378        0.16731
B          0.15763       -4.67392        0.59096
B          3.03784       -3.17187        0.43572
B          3.08203       -1.55828       -0.16698
B          4.54239       -0.73313        0.31309
B          0.25942        1.80792       -0.90573
B          1.65016        2.51523       -0.28739
B          3.10610        1.70810       -0.23166
B          4.55539        0.88539        0.28091
B          4.40112        2.45084        0.50147
B          3.09522        3.33748        0.30628
B          1.67567        4.19804        0.27568
B          0.27457        3.42070       -0.40153
B          0.25981        4.87215        0.39911
B         -2.58934        3.46181       -0.09104
B         -1.16831        4.27226        0.13416
B         -2.62711        1.81763       -0.44539
B         -4.00406        2.66606        0.07383
B         -4.09572        0.97534       -0.35326
B         -1.19241        2.62760       -0.62241
B         -1.26294       -2.44149       -0.52890
B          3.17847       -0.02360       -0.59773
B         -1.19016        0.89753       -0.73803
B          4.36659       -2.29081        0.59549
B         -5.37701       -1.56347        0.65923
B         -5.35206        0.06183        0.39286
B         -5.33061        1.88778        0.59242
B         -6.49877        0.96361        1.21340
B         -6.52235       -0.58375        1.24519
B          1.70854        0.91153       -0.81910
B         -0.32211       -3.37802       -1.16808
B          0.18972       -1.65004       -0.84407
B          5.86283       -1.57368        0.79221
B          6.07039        0.13047        0.82182
B          5.88934        1.84380        0.79387
B          1.10614       -0.99094       -0.49756
