45
isomer_3217.log	Energy: -113376.5144713
B          2.23928        1.71809       -0.60158
B          2.06494        3.40703        0.11447
B          0.70593        4.12149        0.27772
B         -0.60924        3.36465       -0.56334
B          0.93110        0.88962       -1.12822
B         -1.90746        0.80718       -1.09284
B         -2.06279        3.95448        0.31474
B          3.72929        1.06488       -0.17852
B         -2.01512        2.45317       -0.55547
B          3.33846        2.64887        0.32406
B         -0.67837        4.59422        0.52999
B         -3.31218        3.04356        0.33815
B         -3.28464        1.47214       -0.27977
B         -4.52881        0.44921        0.29662
B         -0.23287       -1.82600       -1.25736
B         -1.48158       -2.52502       -0.40420
B         -2.94858       -1.89189       -0.23212
B         -4.39353       -1.17646        0.22154
B         -4.02676       -2.76311        0.84719
B         -2.61142       -3.41865        0.43397
B         -1.19840       -4.10905        0.47585
B          0.00308       -3.24691       -0.53532
B          0.24041       -4.46944        0.53458
B          2.74698       -3.01590       -0.11273
B          1.50987       -3.76922        0.12781
B          3.37964       -1.87582       -0.75576
B          4.43314       -2.33659        0.27534
B          4.22573       -0.67484       -0.36516
B          1.50782       -2.11832       -0.90995
B          0.84891        2.55818       -0.76520
B         -3.26189       -0.21732       -0.57488
B          1.02400       -0.65796       -1.22838
B         -4.59914        2.12050        0.74367
B          4.63108        1.97703        0.97438
B          4.98186        0.37743        0.59137
B          5.40459       -1.36123        0.94198
B          6.03059       -0.24731        1.74255
B          5.70900        1.21738        1.77760
B         -1.67123       -0.87007       -1.02252
B          2.44598       -0.40040       -0.56147
B         -0.54324        1.88386       -1.32586
B         -5.56441        1.12876        1.30100
B         -5.57970       -0.45209        1.36366
B         -5.15335       -1.94102        1.42994
B         -0.46698        0.11287       -1.52752
