45
isomer_3218.log	Energy: -113675.8215176
B          2.53904       -1.74549        0.50937
B          2.47265       -3.31452       -0.04350
B          1.10407       -4.15158       -0.12304
B         -0.30552       -3.39497        0.52375
B          1.15241       -0.84847        1.06273
B         -1.74472       -0.83720        0.85188
B         -1.69003       -4.15490       -0.25930
B          3.97131       -0.87415        0.21940
B         -1.76182       -2.54221        0.46090
B          3.84342       -2.50875       -0.28409
B         -0.27665       -4.74626       -0.35984
B         -3.04558       -3.30817       -0.27589
B         -3.15041       -1.70712        0.24210
B         -4.54295       -0.85008       -0.18506
B         -0.34141        1.83151        1.10571
B         -1.76805        2.54088        0.46516
B         -3.15389        1.70303        0.24478
B         -4.54173        0.84269       -0.19258
B         -4.37223        2.46747       -0.76095
B         -3.05200        3.30342       -0.27571
B         -1.69830        4.15283       -0.25891
B         -0.31201        3.39343        0.52176
B         -0.28617        4.74586       -0.36025
B          2.46610        3.31700       -0.04238
B          1.09557        4.15213       -0.12359
B          2.53476        1.74765        0.50672
B          3.83903        2.51289       -0.28412
B          3.96931        0.87906        0.21938
B          1.14958        2.58402        0.77760
B          1.15505       -2.58331        0.77931
B         -3.29536       -0.00103        0.60841
B          1.14915        0.84800        1.06112
B         -4.36601       -2.47177       -0.76191
B          5.08703       -1.69226       -0.85323
B          5.19739        0.00350       -0.52167
B          5.08354        1.69917       -0.85424
B          6.09503        0.76548       -1.60853
B          6.09675       -0.75649       -1.60814
B         -1.75025        0.83639        0.86184
B          2.60952        0.00112        0.74381
B         -0.33665       -1.83197        1.10351
B         -5.42357       -1.54756       -1.32193
B         -5.62151       -0.00261       -1.30286
B         -5.43141        1.54371       -1.31946
B         -0.34250       -0.00036        1.11196
