45
isomer_3219.log	Energy: -113410.4828202
B          3.04638        0.89626       -0.67846
B          3.25482        2.65229       -0.52284
B          2.05969        3.58098       -0.12876
B          0.48013        3.04792       -0.34456
B          1.42289        0.18912       -0.90857
B         -1.41916        0.95815       -0.75908
B         -0.65266        4.15958        0.34395
B          4.52803        0.24148       -0.92710
B         -1.06644        2.52445       -0.29158
B          4.56775        1.84181       -0.51453
B          0.82697        4.45754        0.29415
B         -2.18881        3.61229        0.42335
B         -2.64679        2.15097       -0.11785
B         -4.22398        1.58940        0.17174
B         -0.71084       -1.69936       -1.32778
B         -2.24833       -2.31337       -0.92983
B         -3.42407       -1.19208       -0.46181
B         -4.59970       -0.01268       -0.00363
B         -4.82203       -1.69474        0.38578
B         -3.69775       -2.75424       -0.14728
B         -2.42047       -3.73762        0.07018
B         -0.93864       -3.34818       -0.65623
B         -1.13948       -4.26699        0.64921
B          1.84617       -3.37059        0.40390
B          0.35893       -3.81682        0.55616
B          1.98554       -1.64481       -0.57921
B          2.73720       -2.14726        0.90236
B          3.32082       -0.73100       -0.15463
B          0.68656       -2.68801       -0.81232
B          1.76530        1.93850       -0.71813
B         -3.09161        0.52858       -0.59361
B          0.81046       -1.14387       -1.68875
B         -3.69859        3.12457        0.82389
B          5.74337        0.92849        0.06252
B          4.85528       -0.52325        0.50171
B          3.98136       -1.43946        1.57083
B          5.25989       -0.77968        2.05947
B          6.14632        0.19327        1.31909
B         -1.81484       -0.60303       -0.84056
B          0.93008       -2.03020        0.88837
B          0.12785        1.40939       -0.77258
B         -4.97807        2.43689        1.29636
B         -5.50166        0.97597        1.16325
B         -5.65734       -0.58544        1.02144
B          0.19943       -0.91521       -0.02802
