45
isomer_0322.log	Energy: -110716.3518236
B         -2.62915       -1.58158       -0.45100
B         -2.63408       -3.22086       -0.07643
B         -1.23427       -4.06261        0.16602
B          0.22987       -3.23978       -0.37885
B         -1.16234       -0.69997       -0.75125
B          1.71221       -0.75146       -0.83176
B          1.61283       -4.03831        0.30971
B         -4.08112       -0.69645       -0.37700
B          1.61961       -2.35700       -0.27669
B         -4.03542       -2.39037        0.07418
B          0.18265       -4.69133        0.44445
B          3.05121       -3.20249        0.32945
B          3.09124       -1.57941       -0.23149
B          4.55632       -0.77962        0.27046
B          0.29790        1.81601       -0.89209
B          1.68470        2.49827       -0.26116
B          3.13495        1.68123       -0.22106
B          4.57803        0.83926        0.27564
B          4.43090        2.39823        0.52555
B          3.13840        3.30118        0.35025
B          1.72294        4.17537        0.33598
B          0.31913        3.41862       -0.35756
B          0.31076        4.86561        0.47501
B         -2.54433        3.47455       -0.05502
B         -1.12247        4.27689        0.19269
B         -2.58330        1.83814       -0.44007
B         -3.96743        2.68097        0.09039
B         -4.05849        0.99180       -0.37160
B         -1.14196        2.64369       -0.59757
B         -1.20990       -2.42444       -0.61378
B          3.19579       -0.04894       -0.62308
B         -1.14063        0.91947       -0.74607
B          4.36744       -2.33565        0.51041
B         -5.34968       -1.56955        0.57846
B         -5.32452        0.06217        0.34976
B         -5.30327        1.89246        0.58954
B         -6.48236        0.95146        1.18665
B         -6.50318       -0.60111        1.18168
B          1.73427        0.89441       -0.82649
B         -0.82202       -2.80211        0.86324
B          0.25165       -1.63379       -0.90312
B          5.88504       -1.64559        0.72951
B          6.10293        0.06467        0.80034
B          5.92835        1.79711        0.81112
B          0.19080       -1.12915       -1.15734
