45
isomer_3220.log	Energy: -113187.5846251
B         -2.71589        1.90907        0.64076
B         -2.54159        3.43415        0.11144
B         -1.15718        4.11342       -0.10302
B          0.28153        3.45978        0.45339
B         -1.93431        0.57676        0.83183
B          1.59869        0.86346        0.91035
B          1.64949        4.20385       -0.39222
B         -3.85233        0.93297        0.28071
B          1.77044        2.64906        0.37158
B         -3.94887        2.60416       -0.17095
B          0.22730        4.71732       -0.49821
B          3.04492        3.35543       -0.34466
B          3.08289        1.78030        0.23743
B          4.40742        0.87854       -0.20647
B          0.31474       -1.77873        1.17245
B          1.69727       -2.51217        0.38454
B          3.04721       -1.65440        0.22645
B          4.39473       -0.78001       -0.29132
B          4.41244       -2.42014       -0.68678
B          3.01950       -3.19190       -0.38494
B          1.65847       -4.08417       -0.41690
B          0.28494       -3.44012        0.33894
B          0.30042       -4.73030       -0.60817
B         -2.49732       -3.35755       -0.26628
B         -1.13559       -4.18865       -0.38284
B         -2.49692       -1.73380        0.67199
B         -3.68430       -2.43877       -0.37552
B         -3.79260       -0.84617        0.16625
B         -1.20653       -2.83088        0.63754
B         -1.17920        2.42521        0.66662
B          3.09634        0.05363        0.51662
B         -1.12385       -0.80479        1.02995
B          4.42207        2.51928       -0.66939
B         -5.09776        1.77497       -0.80474
B         -4.92112        0.05722       -0.56112
B         -4.90887       -1.57043       -0.96221
B         -5.90062       -0.63824       -1.67776
B         -5.99737        0.84150       -1.58140
B          1.62616       -0.81570        0.93049
B         -1.19727       -2.03304        1.97472
B          0.45010        1.95680        1.05664
B          5.52304        1.58659       -1.10753
B          5.71994        0.04211       -1.06505
B          5.57690       -1.52371       -1.06881
B         -0.31744        0.63808        1.01562
