45
isomer_3222.log	Energy: -113479.5059338
B          2.53423       -1.66578        0.88747
B          2.47063       -3.36876        0.29269
B          1.10651       -4.15535        0.11785
B         -0.36831       -3.38946        0.63107
B          1.01469       -0.81125        0.88849
B         -1.71976       -0.79256        0.79907
B         -1.70647       -4.12815       -0.18096
B          3.70622       -0.87603        0.04094
B         -1.76939       -2.48166        0.46284
B          3.67524       -2.55178       -0.26673
B         -0.30842       -4.72217       -0.23587
B         -3.07976       -3.25651       -0.25225
B         -3.17983       -1.68951        0.20257
B         -4.58545       -0.79273       -0.13810
B         -0.37618        1.71553        1.06514
B         -1.70936        2.50693        0.42579
B         -3.13320        1.74063        0.17527
B         -4.52477        0.85462       -0.23362
B         -4.34835        2.48744       -0.78733
B         -2.99471        3.28923       -0.32033
B         -1.60919        4.13465       -0.22692
B         -0.30445        3.39159        0.65348
B         -0.19805        4.69792       -0.25471
B          2.54324        3.32983        0.36945
B          1.19699        4.12512        0.14717
B          2.56602        1.61859        0.92785
B          3.73797        2.50724       -0.19906
B          3.72703        0.82427        0.06634
B          1.16131        2.54630        0.82753
B          1.11462       -2.56334        0.77173
B         -3.23761        0.02875        0.53379
B          1.02842        0.79829        0.89675
B         -4.41594       -2.43583       -0.71248
B          4.76408       -1.73349       -1.08970
B          4.90550       -0.02927       -0.77192
B          4.81100        1.68615       -1.03578
B          5.71629        0.74604       -1.90368
B          5.69378       -0.79211       -1.92801
B         -1.71362        0.82702        0.83642
B          2.69855       -0.03079        1.46701
B         -0.40044       -1.70571        1.02454
B         -5.49285       -1.50321       -1.24205
B         -5.67533        0.04044       -1.26379
B         -5.46366        1.58560       -1.29082
B          2.14278       -0.00670       -0.17713
