45
isomer_3223.log	Energy: -109317.0052321
B         -2.61926       -1.59948       -0.40396
B         -2.62589       -3.23416       -0.00981
B         -1.22682       -4.07524        0.23918
B          0.23726       -3.26138       -0.31915
B         -1.15180       -0.72392       -0.71839
B          1.72245       -0.78108       -0.80548
B          1.62066       -4.05389        0.37545
B         -4.06962       -0.71116       -0.33691
B          1.62866       -2.37972       -0.23103
B         -4.02550       -2.39964        0.13437
B          0.18978       -4.70290        0.52156
B          3.06044       -3.22024        0.38159
B          3.10165       -1.60405       -0.19881
B          4.56928       -0.80072        0.28987
B          0.31211        1.78779       -0.89295
B          1.70159        2.47527       -0.27370
B          3.15063        1.65640       -0.22747
B          4.59360        0.81807        0.27564
B          4.44961        2.38015        0.50727
B          3.15812        3.28306        0.32442
B          1.74404        4.15933        0.30325
B          0.33727        3.39664       -0.37767
B          0.33333        4.85349        0.43756
B         -2.52532        3.46087       -0.06866
B         -1.10156        4.26379        0.16588
B         -2.56790        1.82005       -0.43402
B         -3.94933        2.67142        0.08979
B         -4.04426        0.97700       -0.35175
B         -1.12567        2.62129       -0.60475
B         -1.20179       -2.44655       -0.56020
B          3.20768       -0.07854       -0.60893
B         -1.12748        0.89542       -0.73263
B          4.37850       -2.35346        0.54888
B         -5.33717       -1.57069        0.63209
B         -5.30996        0.05813        0.38384
B         -5.28517        1.89112        0.60167
B         -6.46426        0.95925        1.21293
B         -6.48758       -0.59324        1.22658
B          1.74717        0.86469       -0.81995
B         -1.99582       -1.78872       -0.43374
B          0.26030       -1.66181       -0.86263
B          5.89776       -1.66332        0.75592
B          6.11858        0.04731        0.80575
B          5.94681        1.78004        0.79625
B          0.77488       -1.41669       -0.73713
