45
isomer_3226.log	Energy: -113441.9996903
B         -2.37154        1.53295        0.33411
B         -2.66340        3.21547        0.28117
B         -1.40752        4.12128        0.43290
B          0.08049        3.34842        0.71276
B         -0.76634        0.73413        0.02885
B          1.62869        0.84211        0.65207
B          1.35595        4.22623       -0.06593
B         -3.77278        0.68271       -0.11240
B          1.53076        2.56848        0.33416
B         -3.91072        2.32671       -0.16486
B         -0.05752        4.82273        0.13456
B          2.74624        3.42074       -0.38981
B          2.92639        1.81803       -0.03405
B          4.38056        1.03611       -0.41771
B          0.49437       -1.73833        1.17174
B          1.92579       -2.45375        0.69379
B          3.28708       -1.59108        0.31359
B          4.57502       -0.61461       -0.21960
B          4.48586       -2.31882       -0.65674
B          3.29751       -3.20261       -0.00739
B          1.99033       -4.14471        0.09725
B          0.56219       -3.41751        0.77319
B          0.63341       -4.81794        0.00056
B         -2.15017       -3.40510       -0.02020
B         -0.79085       -4.23242        0.11689
B         -2.30089       -1.81523        0.41941
B         -3.57478       -2.66821       -0.38800
B         -3.64577       -1.03001       -0.20021
B         -0.94438       -2.59241        0.82452
B         -1.32699        2.46665        1.19061
B          3.17896        0.14210        0.46747
B         -0.94894       -0.78253        1.19537
B          4.08375        2.64946       -0.99996
B         -5.11690        1.45410       -0.77102
B         -4.98695       -0.24888       -0.81458
B         -4.87307       -1.95865       -1.00992
B         -6.04413       -1.05237       -1.65859
B         -6.19627        0.45675       -1.51388
B          1.75563       -0.77215        0.81135
B         -2.17949       -0.10404        0.17935
B          0.25240        1.62792        1.01929
B          5.18147        1.77675       -1.56353
B          5.49180        0.21867       -1.47202
B          5.40923       -1.32176       -1.37478
B         -1.22448        0.79461        1.67018
