45
isomer_3227.log	Energy: -112786.9795586
B          2.62535       -1.53393        0.42723
B          2.66658       -3.18566        0.03328
B          1.25935       -4.04567       -0.21164
B         -0.22350       -3.24332        0.34671
B          1.15060       -0.65292        0.74460
B         -1.74407       -0.76785        0.82092
B         -1.59397       -4.04894       -0.34385
B          4.04594       -0.63361        0.35200
B         -1.63596       -2.37362        0.25288
B          4.02719       -2.32336       -0.10738
B         -0.15257       -4.67690       -0.48501
B         -3.04387       -3.23371       -0.35867
B         -3.11060       -1.61336        0.21055
B         -4.58181       -0.82465       -0.28370
B         -0.35316        1.81168        0.89724
B         -1.75239        2.48213        0.27185
B         -3.19047        1.64999        0.22564
B         -4.62150        0.79494       -0.27598
B         -4.49674        2.36194       -0.51997
B         -3.20717        3.26981       -0.33472
B         -1.80504        4.15728       -0.31553
B         -0.39569        3.41712        0.37043
B         -0.40560        4.85339       -0.44945
B          2.45773        3.50515        0.05855
B          1.02859        4.28811       -0.17680
B          2.52178        1.86926        0.43770
B          3.88157        2.72703       -0.09381
B          3.99782        1.05299        0.35735
B          1.07700        2.65715        0.60240
B          1.21874       -2.40608        0.59019
B         -3.23224       -0.07954        0.61410
B          1.09992        0.93861        0.74443
B         -4.38282       -2.38473       -0.53970
B          5.31851       -1.47527       -0.61243
B          5.26688        0.15094       -0.37157
B          5.21796        1.96385       -0.59876
B          6.39411        1.05642       -1.20427
B          6.44506       -0.48830       -1.21360
B         -1.78333        0.87581        0.82717
B          1.55008       -2.56702       -0.92645
B         -0.28391       -1.62563        0.89189
B         -5.88767       -1.68971       -0.74833
B         -6.11637        0.00553       -0.80319
B         -5.96719        1.71137       -0.80156
B          0.71691       -1.72674        1.69929
