45
isomer_3229.log	Energy: -113675.8811642
B          2.50753        1.76009       -0.48574
B          2.42466        3.33531        0.04156
B          1.04444        4.15735        0.12310
B         -0.35357        3.38508       -0.51622
B          1.12809        0.84805       -1.03823
B         -1.78882        0.83021       -0.91429
B         -1.75089        4.14386        0.24426
B          3.95643        0.91265       -0.21600
B         -1.80372        2.53200       -0.49030
B          3.80773        2.53810        0.29504
B         -0.34507        4.74585        0.35074
B         -3.09406        3.27901        0.26552
B         -3.17446        1.67908       -0.26150
B         -4.53148        0.79505        0.24016
B         -0.31176       -1.82986       -1.08672
B         -1.72261       -2.55181       -0.42812
B         -3.12826       -1.73476       -0.22013
B         -4.54737       -0.89683        0.14304
B         -4.32429       -2.50131        0.77132
B         -3.00675       -3.34238        0.27895
B         -1.63925       -4.17017        0.25892
B         -0.26702       -3.40242       -0.53946
B         -0.21662       -4.74713        0.35328
B          2.51639       -3.30300        0.03599
B          1.15954       -4.14798        0.10881
B          2.56540       -1.72976       -0.53330
B          3.87143       -2.48375        0.27434
B          3.98542       -0.84355       -0.22581
B          1.18756       -2.57729       -0.78910
B          1.11744        2.58974       -0.76292
B         -3.29398       -0.01726       -0.60980
B          1.17186       -0.85115       -1.06848
B         -4.40826        2.44281        0.74902
B          5.05957        1.74075        0.86586
B          5.19689        0.04673        0.52113
B          5.10576       -1.64932        0.84365
B          6.10425       -0.70402        1.60618
B          6.08359        0.81623        1.61350
B         -1.71723       -0.84366       -0.78461
B          2.61085        0.01758       -0.74743
B         -0.37041        1.82492       -1.11818
B         -5.47511        1.51675        1.30060
B         -5.62006       -0.03531        1.30458
B         -5.37064       -1.57095        1.33900
B         -0.34314       -0.00351       -1.09219
