45
isomer_0323.log	Energy: -113318.4058269
B         -2.41786       -1.69079       -0.30719
B         -2.35045       -3.14507        0.58677
B         -0.93053       -3.60714        0.94959
B          0.40764       -3.45472       -0.19078
B         -1.06615       -0.94122       -0.93775
B          1.79581       -0.69969       -0.92139
B          1.87058       -3.68115        0.70144
B         -3.90748       -0.92953       -0.13257
B          1.77207       -2.47780       -0.63738
B         -3.72478       -2.40432        0.52111
B          0.52201       -3.91241        1.34624
B          3.20160       -3.07131        0.15145
B          3.17244       -1.54168       -0.35659
B          4.59258       -0.59106       -0.07088
B          0.17053        1.79645       -0.91962
B          1.52244        2.53825       -0.13557
B          3.00993        1.85239       -0.10395
B          4.51747        1.08480        0.04244
B          4.22968        2.62190        0.81861
B          2.80096        3.38391        0.51136
B          1.36478        4.11877        0.52310
B          0.05535        3.35677       -0.39086
B         -0.08986        4.61128        0.57583
B         -2.76437        3.18371       -0.02157
B         -1.45325        4.00238        0.17670
B         -2.68986        1.41358       -0.63127
B         -4.02632        2.32355        0.01887
B         -4.12248        0.76459       -0.43287
B         -1.39103        2.42158       -0.65399
B         -1.18580       -2.76839       -0.64404
B          3.26059        0.20668       -0.69448
B         -1.26103        0.74694       -0.88254
B          4.57433       -2.23732        0.41029
B         -5.15064       -1.68239        0.79483
B         -5.32894       -0.14567        0.13651
B         -5.43217        1.52833        0.34108
B         -6.46966        0.66212        1.06160
B         -6.29836       -0.78593        1.31287
B          1.64320        0.95452       -0.71442
B          0.25495        0.02965       -1.08420
B          0.50613       -1.56507       -1.50428
B          5.66641       -1.31127        0.87038
B          5.72881        0.24291        1.00115
B          5.39409        1.74805        1.20573
B          0.02662       -2.94917       -1.68977
