45
isomer_3230.log	Energy: -111924.0968149
B         -2.60212       -1.70220       -0.44515
B         -2.59054       -3.33826       -0.05686
B         -1.18224       -4.16423        0.19066
B          0.27306       -3.33175       -0.36313
B         -1.14440       -0.80886       -0.75482
B          1.73040       -0.83296       -0.83894
B          1.66467       -4.11094        0.33014
B         -4.06258       -0.83071       -0.37651
B          1.65423       -2.43462       -0.27032
B         -3.99972       -2.52026        0.08876
B          0.24112       -4.77673        0.47235
B          3.09484       -3.26097        0.34086
B          3.11825       -1.64234       -0.23370
B          4.57611       -0.82410        0.25947
B          0.29098        1.71998       -0.91877
B          1.67188        2.42102       -0.29553
B          3.13010        1.61854       -0.25063
B          4.58199        0.79490        0.25106
B          4.41996        2.35440        0.48812
B          3.11847        3.24318        0.30709
B          1.69451        4.10336        0.28749
B          0.29725        3.32715       -0.39771
B          0.27584        4.78092        0.42273
B         -2.56621        3.35765       -0.09163
B         -1.15194        4.17589        0.14736
B         -2.58970        1.71777       -0.46291
B         -3.98130        2.55146        0.06243
B         -4.05645        0.85767       -0.38528
B         -1.15651        2.53600       -0.62918
B         -1.17493       -2.53251       -0.60286
B          3.20732       -0.11426       -0.63824
B         -1.13852        0.81070       -0.76323
B          4.40276       -2.37984        0.51270
B         -5.32128       -1.70811        0.58801
B         -5.31237       -0.07820        0.34562
B         -5.30870        1.75416        0.57003
B         -6.47775        0.80673        1.17666
B         -6.48339       -0.74596        1.18472
B          1.73638        0.81303       -0.84749
B         -0.70311        1.34015        0.48376
B          0.27845       -1.73008       -0.90086
B          5.91384       -1.67317        0.72389
B          6.11510        0.03966        0.78009
B          5.92360        1.77035        0.77661
B         -0.40738       -1.35364       -0.26683
