45
isomer_3231.log	Energy: -112271.3512529
B          2.59129       -1.54221        0.34037
B          2.62548       -3.17373       -0.06533
B          1.24049       -4.03963       -0.30785
B         -0.23374       -3.25773        0.26913
B          1.11032       -0.69702        0.67393
B         -1.76142       -0.80964        0.78605
B         -1.60799       -4.07171       -0.41876
B          4.02382       -0.62593        0.26674
B         -1.64240       -2.40220        0.19955
B          4.00761       -2.31167       -0.21601
B         -0.16639       -4.69227       -0.58210
B         -3.06337       -3.26568       -0.40628
B         -3.13011       -1.65459        0.18583
B         -4.61709       -0.87609       -0.28417
B         -0.39950        1.78503        0.87913
B         -1.80732        2.45010        0.27707
B         -3.24086        1.60406        0.23789
B         -4.67208        0.74181       -0.25832
B         -4.55993        2.30791       -0.48020
B         -3.28427        3.23402       -0.30244
B         -1.88698        4.13697       -0.28761
B         -0.45990        3.39661        0.37544
B         -0.49100        4.85885       -0.42951
B          2.39806        3.51760        0.04157
B          0.95723        4.29479       -0.17470
B          2.47514        1.87542        0.39497
B          3.83536        2.75659       -0.13504
B          3.96648        1.06130        0.29370
B          1.01951        2.64779        0.58410
B          1.19166       -2.41725        0.50318
B         -3.26146       -0.13424        0.60761
B          1.05532        0.92143        0.69979
B         -4.39914       -2.42309       -0.55579
B          5.29874       -1.45443       -0.71947
B          5.24278        0.17184       -0.45952
B          5.18115        2.00547       -0.66420
B          6.37222        1.10051       -1.29243
B          6.42496       -0.45112       -1.31722
B         -1.81733        0.83523        0.81233
B          2.00935       -3.16468        0.84539
B         -0.28232       -1.66266        0.82405
B         -5.93306       -1.76066       -0.74450
B         -6.18682       -0.05427       -0.78033
B         -6.04798        1.68133       -0.76015
B          1.92548       -0.44218        1.54410
