45
isomer_3232.log	Energy: -113384.1399658
B          2.48513        1.67525       -0.60440
B          2.45425        3.38347       -0.12526
B          1.08607        4.13110        0.08589
B         -0.37009        3.36261       -0.41262
B          1.08607        0.83644       -0.96016
B         -1.77662        0.82657       -0.88763
B         -1.75861        4.10683        0.33969
B          3.89197        0.86263       -0.49393
B         -1.77289        2.45989       -0.29977
B          3.77633        2.57360        0.01964
B         -0.35490        4.70292        0.44022
B         -3.12222        3.23620        0.34070
B         -3.19247        1.68111       -0.21188
B         -4.58429        0.82641        0.26262
B         -0.40447       -1.69237       -1.03036
B         -1.79216       -2.44562       -0.34570
B         -3.20318       -1.65167       -0.25349
B         -4.57494       -0.80512        0.23347
B         -4.53987       -2.45819        0.57906
B         -3.14983       -3.21769        0.28909
B         -1.76318       -4.08967        0.28976
B         -0.38111       -3.35700       -0.45038
B         -0.38195       -4.68802        0.41966
B          2.44138       -3.36934       -0.06948
B          1.08075       -4.11372        0.10514
B          2.50419       -1.68712       -0.62254
B          3.78937       -2.50697        0.14871
B          3.93676       -0.85751       -0.55664
B          1.04540       -2.58602       -0.71479
B          1.05323        2.58258       -0.70449
B         -3.29188        0.04996       -0.60783
B          1.08810       -0.86350       -0.98327
B         -4.54500        2.47681        0.61652
B          5.06902        1.80693        0.57943
B          5.03831        0.10169        0.34078
B          5.02742       -1.61814        0.69857
B          6.04459       -0.61472        1.39430
B          6.07992        0.94530        1.31331
B         -1.79122       -0.82624       -0.90663
B          3.43924       -0.90139        1.00952
B         -0.40183        1.71277       -0.97993
B         -5.79520        1.61690        0.88303
B         -5.96767        0.01081        0.89468
B         -5.78944       -1.56791        0.89188
B          2.28753       -0.05085        0.04550
