45
isomer_3234.log	Energy: -113474.2541138
B          2.51697        1.66906       -0.55981
B          2.46818        3.33379        0.07573
B          1.08696        4.11365        0.27789
B         -0.34491        3.39583       -0.35949
B          1.15484        0.91665       -1.02532
B         -1.79465        0.89185       -0.94850
B         -1.73354        4.15439        0.39926
B          3.94403        0.94024       -0.28376
B         -1.78400        2.55854       -0.46575
B          3.81762        2.52224        0.13420
B         -0.33101        4.71138        0.56296
B         -3.10109        3.28773        0.34090
B         -3.17408        1.74187       -0.23429
B         -4.51848        0.77367        0.20913
B         -0.18191       -1.61310       -0.51981
B         -1.64623       -2.49325       -0.32137
B         -3.11320       -1.71856       -0.36827
B         -4.58606       -0.86993       -0.15019
B         -4.38632       -2.48623        0.47336
B         -3.02066       -3.32768        0.08547
B         -1.64187       -4.14842        0.15174
B         -0.12288       -3.33549       -0.58406
B         -0.27940       -4.53850        0.57090
B          2.52537       -3.11238        0.40699
B          1.15012       -3.87200        0.49605
B          2.60667       -1.69788       -0.65286
B          3.89087       -2.30121        0.35736
B          3.99219       -0.82093       -0.29469
B          1.35061       -2.74356       -1.08716
B          1.14796        2.61728       -0.62488
B         -3.27247        0.03451       -0.67425
B          1.29829       -0.71827       -0.71739
B         -4.44949        2.44196        0.71737
B          5.21138        1.75110        0.54703
B          5.29723        0.10671        0.12089
B          5.27282       -1.51273        0.62763
B          6.35664       -0.58508        1.22253
B          6.32343        0.90223        1.18131
B         -1.67448       -0.76314       -0.72073
B          1.13102       -2.03118        0.52031
B         -0.36210        1.87201       -1.05159
B         -5.58301        1.50113        1.13969
B         -5.73978       -0.04652        1.06967
B         -5.45004       -1.56811        1.02551
B         -0.25152        0.06633       -1.06972
