45
isomer_3235.log	Energy: -113510.9146759
B         -2.56218       -1.73949       -0.90651
B         -2.34125       -3.03965        0.29923
B         -0.92741       -3.86232        0.38268
B          0.40433       -3.28764       -0.50271
B         -1.03023       -0.79326       -0.96555
B          1.80936       -0.75536       -0.80133
B          1.84709       -4.00856        0.20116
B         -3.98188       -0.91893       -0.62817
B          1.87361       -2.42737       -0.55501
B         -3.84537       -2.63830        0.24952
B          0.43890       -4.50661        0.54612
B          3.22777       -3.22458        0.05903
B          3.33026       -1.65798       -0.44709
B          4.74312       -0.78034       -0.15984
B          0.36551        1.67546       -0.86195
B          1.73766        2.45678       -0.21655
B          3.20371        1.75610       -0.19192
B          4.56975        0.83405        0.23261
B          4.46843        2.47477        0.72265
B          3.05747        3.26649        0.41186
B          1.63842        4.09109        0.40067
B          0.32591        3.34637       -0.40537
B          0.22778        4.69336        0.41909
B         -2.52360        3.32792       -0.19013
B         -1.18316        4.10839        0.02887
B         -2.53364        1.62316       -0.47841
B         -3.89818        2.47998       -0.05458
B         -3.96135        0.82956       -0.55254
B         -1.14180        2.54490       -0.70293
B         -1.05907       -2.45557       -0.68105
B          3.32896        0.06305       -0.64397
B         -1.00929        0.80124       -0.72136
B          4.60350       -2.40771        0.43674
B         -4.84824       -1.62973        0.84271
B         -5.22067       -0.04532        0.17603
B         -5.14888        1.66896        0.48331
B         -6.13923        0.78761        1.24528
B         -5.90829       -0.64998        1.51262
B          1.76542        0.83805       -0.81877
B         -2.95520       -1.34494        0.82918
B          0.41662       -1.59838       -0.96365
B          5.66846       -1.47222        0.96649
B          5.89700        0.05847        0.99895
B          5.67930        1.59324        1.07747
B         -2.40941       -0.07481       -0.07286
