45
isomer_3236.log	Energy: -113477.8914555
B          2.36405        1.70400       -0.38496
B          2.32600        3.39259       -0.03830
B          1.02886        4.21529       -0.08371
B         -0.41195        3.40599       -0.54876
B          0.99790        0.85559       -1.07463
B         -1.71320        0.80801       -0.85018
B         -1.76063        4.14584        0.18465
B          3.73629        0.93924       -0.01018
B         -1.80050        2.47822       -0.41751
B          3.67968        2.57276        0.27184
B         -0.40200        4.81661        0.18123
B         -3.13650        3.23719        0.25949
B         -3.17681        1.67468       -0.19003
B         -4.49628        0.72216        0.31550
B         -0.21222       -1.57521       -0.70478
B         -1.67154       -2.45447       -0.34846
B         -3.12537       -1.74191       -0.23186
B         -4.58199       -0.92465        0.01527
B         -4.36150       -2.52572        0.66084
B         -2.96856       -3.30888        0.25111
B         -1.56479       -4.13501        0.15989
B         -0.22543       -3.32162       -0.57639
B         -0.17129       -4.72114        0.21462
B          2.38038       -2.96611        0.19631
B          1.18184       -4.00188        0.05075
B          2.64703       -1.64548       -0.95092
B          3.88470       -2.38954        0.14350
B          3.85644       -0.76514       -0.15809
B          1.22109       -2.55691       -1.09037
B          1.06486        2.61937       -0.89097
B         -3.21433       -0.03430       -0.54055
B          1.17059       -0.78650       -1.38117
B         -4.49344        2.40043        0.66575
B          4.98160        1.80079        0.85073
B          5.17537        0.13723        0.38286
B          5.12772       -1.59279        0.67292
B          6.04491       -0.62622        1.51287
B          6.00823        0.88368        1.54760
B         -1.68040       -0.76687       -0.62957
B          2.21308       -0.04998       -0.12792
B         -0.39098        1.75069       -1.06892
B         -5.63738        1.47506        1.12212
B         -5.75948       -0.07397        1.13923
B         -5.44389       -1.60274        1.18511
B          1.30980       -1.46843        0.31403
