45
isomer_3237.log	Energy: -113478.0278240
B         -2.58876       -1.68929       -0.63694
B         -2.50348       -3.10864        0.40933
B         -1.14426       -3.86443        0.48422
B          0.11832       -3.32106       -0.58628
B         -1.28780       -0.71970       -0.73208
B          1.66723       -0.76107       -0.72738
B          1.62834       -4.13309        0.13566
B         -3.97590       -0.82263       -0.28555
B          1.64485       -2.48060       -0.35902
B         -3.86359       -2.29750        0.36874
B          0.27352       -4.53225        0.54853
B          3.00418       -3.31753        0.08376
B          3.10594       -1.71286       -0.38128
B          4.57351       -0.86461       -0.14829
B          0.35896        1.86423       -1.04892
B          1.77493        2.55190       -0.45632
B          3.16169        1.73918       -0.22560
B          4.50461        0.77555        0.21334
B          4.43593        2.43950        0.72394
B          3.08922        3.28393        0.34527
B          1.72345        4.14583        0.40004
B          0.33848        3.38869       -0.36377
B          0.32114        4.69954        0.56005
B         -2.46849        3.32198        0.06331
B         -1.09260        4.10337        0.26886
B         -2.51341        1.66041       -0.56744
B         -3.80999        2.51173        0.12335
B         -3.93101        0.93327       -0.28720
B         -1.15077        2.60954       -0.63827
B         -1.33919       -2.72743       -1.07620
B          3.25990        0.03837       -0.66987
B         -1.15169        0.91100       -1.03056
B          4.37115       -2.47952        0.47048
B         -5.24529       -1.50746        0.64024
B         -5.27747        0.10355        0.12415
B         -5.19470        1.74343        0.54073
B         -6.29635        0.89718        1.17669
B         -6.32342       -0.57834        1.22908
B          1.78428        0.88871       -0.93935
B         -1.13060       -2.04008        0.53092
B          0.16984       -1.60197       -0.45500
B          5.43387       -1.56350        1.02653
B          5.72591       -0.04552        1.07063
B          5.56940        1.50114        1.13963
B          0.25011        0.05706       -1.06213
