45
isomer_0324.log	Energy: -113510.9144074
B          2.53383        1.62300       -0.47893
B          2.52404        3.32761       -0.19026
B          1.18361        4.10798        0.02912
B         -0.32541        3.34650       -0.40588
B          1.00939        0.80129       -0.72200
B         -1.76517        0.83821       -0.81907
B         -1.63775        4.09098        0.40095
B          3.96140        0.82907       -0.55276
B         -1.73715        2.45694       -0.21644
B          3.89832        2.47958       -0.05459
B         -0.22717        4.69326        0.41877
B         -3.05664        3.26632        0.41286
B         -3.20318        1.75611       -0.19155
B         -4.56949        0.83443        0.23278
B         -0.41688       -1.59824       -0.96352
B         -1.87402       -2.42715       -0.55543
B         -3.33062       -1.65770       -0.44702
B         -4.74330       -0.77979       -0.16005
B         -4.60355       -2.40740        0.43693
B         -3.22808       -3.22437        0.05882
B         -1.84748       -4.00834        0.20121
B         -0.40485       -3.28751       -0.50260
B         -0.43931       -4.50644        0.54631
B          2.34065       -3.03942        0.29961
B          0.92693       -3.86229        0.38262
B          2.56188       -1.73945       -0.90653
B          3.84492       -2.63858        0.24957
B          3.98191       -0.91938       -0.62837
B          1.05873       -2.45555       -0.68108
B          1.14215        2.54487       -0.70357
B         -3.32903        0.06337       -0.64410
B          1.03013       -0.79320       -0.96575
B         -4.46761        2.47468        0.72382
B          5.14874        1.66851        0.48340
B          5.22033       -0.04583        0.17641
B          4.84821       -1.63027        0.84281
B          5.90798       -0.65047        1.51308
B          6.13868        0.78732        1.24578
B         -1.80963       -0.75522       -0.80140
B          2.95526       -1.34474        0.82926
B         -0.36541        1.67571       -0.86273
B         -5.67895        1.59359        1.07778
B         -5.89713        0.05886        0.99853
B         -5.66859       -1.47188        0.96611
B          2.40935       -0.07499       -0.07292
