45
isomer_3240.log	Energy: -112767.8050850
B         -2.78937       -1.66034       -0.38968
B         -2.59360       -3.46175       -0.02326
B         -1.08381       -4.31121        0.17344
B          0.36513       -3.46347       -0.36306
B         -1.02587       -0.43312       -0.79807
B          1.83356       -0.83690       -0.84227
B          1.75363       -4.17472        0.33637
B         -4.11403       -0.80842       -0.29515
B          1.76487       -2.51659       -0.25770
B         -4.03995       -2.52075        0.13696
B          0.34985       -4.81811        0.45215
B          3.13698       -3.33144        0.37565
B          3.19431       -1.69541       -0.20134
B          4.62185       -0.83190        0.30180
B          0.40386        1.81828       -0.92047
B          1.78171        2.51492       -0.27331
B          3.20314        1.68122       -0.21630
B          4.61006        0.82540        0.28714
B          4.50479        2.41585        0.56413
B          3.16370        3.30389        0.34529
B          1.77416        4.17626        0.31946
B          0.39237        3.46004       -0.37172
B          0.39558        4.81729        0.43555
B         -2.46353        3.53906       -0.03914
B         -1.03771        4.30691        0.17275
B         -2.44299        1.95943       -0.43755
B         -3.95008        2.65935        0.17955
B         -4.08955        0.89753       -0.28576
B         -1.03535        2.73051       -0.60504
B         -1.05788       -2.75714       -0.59870
B          3.29375       -0.07712       -0.60463
B         -0.98489        0.95411       -0.79910
B          4.51715       -2.44535        0.58711
B         -5.33119       -1.68130        0.68620
B         -5.28179       -0.03287        0.45535
B         -5.21402        1.76672        0.68145
B         -6.31404        0.82421        1.28307
B         -6.39762       -0.70097        1.30331
B          1.83880        0.87863       -0.83793
B         -2.56175        0.39184       -0.74575
B          0.47260       -1.70050       -0.93149
B          5.86095       -1.59565        0.77562
B          6.01856        0.02738        0.81059
B          5.85398        1.63075        0.80986
B         -1.29633       -1.72457       -0.63541
