45
isomer_3241.log	Energy: -110584.0188755
B         -2.63889        1.72142        0.38567
B         -2.63152        3.35834        0.00093
B         -1.22536        4.18845       -0.24493
B          0.23211        3.35848        0.30693
B         -1.17886        0.83114        0.69328
B          1.69588        0.86241        0.77720
B          1.62166        4.14273       -0.38477
B         -4.09712        0.84635        0.31527
B          1.61557        2.46509        0.21206
B         -4.03862        2.53706       -0.14634
B          0.19640        4.80519       -0.52541
B          3.05400        3.29645       -0.39746
B          3.08160        1.67664        0.17359
B          4.54150        0.86320       -0.32148
B          0.26300       -1.69437        0.85162
B          1.64562       -2.39052        0.22674
B          3.10179       -1.58423        0.18345
B          4.55152       -0.75580       -0.31659
B          4.39346       -2.31519       -0.55701
B          3.09426       -3.20768       -0.37779
B          1.67250       -4.07154       -0.35994
B          0.27333       -3.30039        0.32707
B          0.25556       -4.75243       -0.49651
B         -2.59008       -3.33755        0.02117
B         -1.17374       -4.15165       -0.21971
B         -2.61772       -1.69854        0.39601
B         -4.00723       -2.53465       -0.13101
B         -4.08667       -0.84203        0.32038
B         -1.18243       -2.51346        0.56038
B         -1.21380        2.55503        0.54505
B          3.17461        0.14792        0.57481
B         -1.16884       -0.78841        0.69817
B          4.36416        2.41904       -0.57133
B         -5.35815        1.72261       -0.64723
B         -5.34505        0.09221       -0.40838
B         -5.33672       -1.73964       -0.63676
B         -6.50824       -0.79389       -1.24123
B         -6.51785        0.75880       -1.24593
B          1.70607       -0.78358        0.78217
B          0.09366        0.46298        2.20548
B          0.24164        1.75567        0.84118
B          5.87701        1.71670       -0.78418
B          6.08264        0.00451       -0.84411
B          5.89557       -1.72667       -0.84436
B          0.19179       -1.60617        0.30384
