45
isomer_3242.log	Energy: -113478.6846752
B          2.56893       -1.70374        0.61053
B          2.47726       -3.12711       -0.42854
B          1.11361       -3.88555       -0.48591
B         -0.14401       -3.31331        0.57560
B          1.27574       -0.73664        0.74721
B         -1.67219       -0.74887        0.71063
B         -1.65984       -4.12703       -0.12186
B          3.94047       -0.82068        0.24477
B         -1.66411       -2.46983        0.36523
B          3.83685       -2.31046       -0.39374
B         -0.30975       -4.54453       -0.53828
B         -3.03289       -3.30456       -0.05434
B         -3.12002       -1.69560        0.40074
B         -4.58330       -0.83701        0.16766
B         -0.34409        1.86441        1.04423
B         -1.75332        2.55762        0.43343
B         -3.14921        1.75814        0.22035
B         -4.49475        0.79903       -0.21860
B         -4.41999        2.46057       -0.73266
B         -3.06412        3.29769       -0.36180
B         -1.69125        4.14757       -0.41811
B         -0.31101        3.38702        0.35593
B         -0.28356        4.69302       -0.57298
B          2.49815        3.31184       -0.05029
B          1.12528        4.09471       -0.27140
B          2.52963        1.65134        0.57038
B          3.84079        2.50087       -0.10159
B          3.94317        0.91901        0.28853
B          1.17236        2.60315        0.64925
B          1.31588       -2.73528        1.05948
B         -3.25740        0.06077        0.67075
B          1.16178        0.90078        1.02320
B         -4.39744       -2.45957       -0.43531
B          5.22092       -1.52461       -0.65665
B          5.29364        0.07010       -0.09143
B          5.23079        1.72110       -0.49741
B          6.32840        0.86933       -1.12656
B          6.32460       -0.60574       -1.21148
B         -1.77757        0.90136        0.93919
B          1.11328       -2.05815       -0.55426
B         -0.18451       -1.58845        0.38828
B         -5.45540       -1.53836       -0.99492
B         -5.73244       -0.01797       -1.05367
B         -5.56127        1.52736       -1.13984
B         -0.24807        0.05625        1.04625
