45
isomer_3245.log	Energy: -113548.1793069
B         -2.73713       -1.37549       -1.38997
B         -2.93605       -2.87546       -0.00317
B         -1.57917       -3.78225        0.16364
B         -0.13207       -3.16697       -0.46354
B         -1.21483       -0.61648       -1.41374
B          1.58718       -0.81221       -0.79189
B          1.21032       -4.08858        0.20364
B         -4.12734       -0.42901       -0.73123
B          1.45238       -2.51495       -0.53862
B         -4.09850       -2.05761       -0.75773
B         -0.25772       -4.50284        0.40909
B          2.67619       -3.44355        0.10689
B          2.98509       -1.88602       -0.39152
B          4.46794       -1.17383       -0.13495
B          0.38505        1.80069       -1.08621
B          1.83960        2.41600       -0.37374
B          3.15501        1.50465       -0.15746
B          4.46512        0.47452        0.24823
B          4.49437        2.12896        0.72641
B          3.21422        3.06915        0.32776
B          1.88763        4.04669        0.30591
B          0.48705        3.39212       -0.45416
B          0.56310        4.76930        0.34959
B         -2.30342        3.57027       -0.10794
B         -0.89795        4.28172       -0.00475
B         -2.46053        1.95275       -0.60241
B         -3.55548        2.72499        0.37910
B         -4.00365        1.16729       -0.27686
B         -1.01053        2.80296       -0.92022
B         -1.37238       -2.04334       -0.36836
B          3.14512       -0.17659       -0.64415
B         -1.06323        1.04083       -1.16589
B          4.11926       -2.76541        0.50753
B         -4.27165       -1.80202        0.84693
B         -3.78199       -0.00004        0.99089
B         -4.23213        1.69353        1.38256
B         -4.63762        0.53229        2.30561
B         -4.60581       -0.94125        2.11509
B          1.69193        0.76826       -0.88727
B         -2.66263       -1.22598        0.44515
B          0.11992       -1.53277       -0.95966
B          5.21823       -1.89906        1.10282
B          5.64239       -0.41815        1.10251
B          5.59240        1.12884        1.15275
B         -2.45769        0.26403       -0.54664
