45
isomer_3246.log	Energy: -113699.5675734
B         -2.60155       -1.47819       -1.17814
B         -3.20276       -2.30328        0.42892
B         -2.34110       -3.50377        0.88476
B         -0.29421       -3.22290       -0.95393
B         -1.17027       -0.53522       -1.71807
B          1.69619       -1.02202       -1.23805
B          0.67030       -3.91192        0.22679
B         -2.46153        0.25623       -0.87733
B          1.26368       -2.56100       -0.62703
B         -3.69863       -0.75042       -0.19106
B         -0.89456       -3.89983        0.52615
B          2.18044       -3.42377        0.48165
B          2.77871       -2.02934       -0.25415
B          4.16187       -1.33362        0.42986
B          0.49552        1.83735       -1.17132
B          2.01718        2.42039       -0.54189
B          3.23168        1.35862       -0.28232
B          4.41179        0.34656        0.39687
B          4.47086        1.98135        0.89001
B          3.29768        2.94945        0.32809
B          2.02081        3.94062        0.30361
B          0.59556        3.38425       -0.53343
B          0.67309        4.65597        0.45262
B         -2.17224        3.51200        0.08715
B         -0.76372        4.23109        0.15861
B         -2.39321        1.98880       -0.65765
B         -3.44538        2.70788        0.48445
B         -3.66888        1.06929        0.00913
B         -0.89911        2.69722       -0.80511
B         -1.96858       -2.96109       -0.53277
B          3.19303       -0.33951       -0.59940
B         -1.08349        1.07720       -1.36618
B          3.55496       -2.80874        1.07915
B         -4.43318       -1.51998        1.17916
B         -4.78415        0.12221        0.79871
B         -4.50560        1.78175        1.27749
B         -5.18890        0.77472        2.23509
B         -5.23860       -0.72722        2.15893
B          1.84651        0.73810       -1.08387
B         -1.30920       -2.21963       -1.87378
B          0.25200       -1.66032       -1.67367
B          4.72865       -2.06696        1.73178
B          5.22376       -0.61404        1.64528
B          5.34158        0.95074        1.55230
B          0.41301        0.11099       -1.58742
