45
isomer_3249.log	Energy: -112492.2997760
B         -2.67163       -1.61479       -0.52252
B         -2.49431       -3.32870       -0.11701
B         -1.05762       -4.15604        0.14413
B          0.45157       -3.34716       -0.35192
B         -1.41186       -0.50912       -0.79161
B          1.91892       -0.77281       -0.88338
B          1.85597       -4.05028        0.33830
B         -4.00247       -0.83260       -0.41722
B          1.96773       -2.41076       -0.26899
B         -3.89856       -2.48588        0.02092
B          0.40307       -4.65363        0.42770
B          3.31223       -3.18463        0.35850
B          3.31201       -1.57409       -0.21995
B          4.71711       -0.67825        0.26451
B          0.18753        1.75035       -0.92378
B          1.62209        2.46530       -0.30910
B          3.12212        1.72785       -0.25971
B          4.61047        0.96123        0.23782
B          4.40039        2.53708        0.51900
B          2.98131        3.30937        0.30003
B          1.52001        4.10390        0.29059
B          0.15913        3.33748       -0.37836
B          0.11307        4.65737        0.42390
B         -2.68328        3.30057       -0.05722
B         -1.29634        4.09291        0.16530
B         -2.70056        1.66738       -0.45896
B         -4.02717        2.44637        0.08245
B         -4.04704        0.84484       -0.39315
B         -1.31539        2.51348       -0.61282
B         -1.18529       -2.57093       -0.61591
B          3.31701        0.01547       -0.64387
B         -1.32610        0.86132       -0.76994
B          4.69089       -2.28168        0.56625
B         -5.19295       -1.72720        0.53137
B         -5.21789       -0.08441        0.31490
B         -5.25548        1.63900        0.55826
B         -6.30899        0.70858        1.12783
B         -6.31931       -0.79696        1.13552
B          1.79692        0.87708       -0.87346
B         -2.34488       -0.44602        1.09464
B          0.62204       -1.71134       -0.99595
B          5.97384       -1.36740        0.73082
B          6.03780        0.26471        0.75700
B          5.77401        1.79348        0.74782
B         -0.11012       -1.29044       -0.27273
