45
isomer_3250.log	Energy: -112261.6846634
B         -2.38402       -1.33119       -0.72648
B         -2.76618       -3.30901       -0.01893
B         -1.20087       -4.15644        0.28325
B          0.69544       -3.37694       -0.30142
B         -1.03493       -0.53232       -0.93761
B          1.97843       -0.79954       -0.87673
B          1.95297       -4.09274        0.39385
B         -4.34332       -0.48930       -0.35622
B          2.05317       -2.45481       -0.21371
B         -4.65928       -2.54153        0.23004
B          0.39019       -4.65179        0.50451
B          3.37918       -3.21494        0.43807
B          3.41303       -1.63358       -0.16849
B          4.77702       -0.72002        0.31709
B          0.37599        1.79400       -0.96907
B          1.76733        2.46257       -0.33708
B          3.25109        1.69150       -0.26459
B          4.68987        0.89222        0.26344
B          4.53019        2.50221        0.54054
B          3.13698        3.28528        0.29441
B          1.76891        4.10422        0.29713
B          0.36237        3.37440       -0.39571
B          0.36091        4.72013        0.44711
B         -2.47324        3.38403       -0.02082
B         -1.06202        4.16374        0.18416
B         -2.57486        1.77116       -0.45874
B         -3.86743        2.62175        0.14205
B         -4.12762        1.05269       -0.31957
B         -1.11944        2.59278       -0.62753
B         -1.34687       -2.22457       -0.73173
B          3.42722       -0.00266       -0.62243
B         -1.10720        0.94413       -0.85581
B          4.75455       -2.34265        0.66247
B         -5.71167       -1.51507        0.65846
B         -5.50177        0.17291        0.41966
B         -5.27187        1.92142        0.66448
B         -6.47709        1.09331        1.26806
B         -6.68505       -0.42980        1.29380
B          1.88798        0.88400       -0.89908
B         -3.56878       -1.87406       -0.19057
B          0.59135       -1.52441       -0.99522
B          6.04083       -1.44462        0.85016
B          6.13816        0.17020        0.85680
B          5.87632        1.74165        0.81572
B         -0.31593       -2.67832       -0.53772
