45
isomer_3252.log	Energy: -111748.0128612
B         -2.60584        1.73108        0.40367
B         -2.59200        3.37009        0.02808
B         -1.18263        4.19566       -0.21458
B          0.27192        3.35654        0.33113
B         -1.14924        0.83299        0.70479
B          1.72569        0.85176        0.78591
B          1.66403        4.13882       -0.35762
B         -4.06779        0.86252        0.32989
B          1.65152        2.45790        0.22983
B         -4.00268        2.55553       -0.12232
B          0.24142        4.80801       -0.49308
B          3.09280        3.28664       -0.37651
B          3.11420        1.66355        0.18544
B          4.57018        0.84681       -0.31569
B          0.28218       -1.69938        0.84751
B          1.66125       -2.39780        0.21732
B          3.12073       -1.59737        0.17704
B          4.57342       -0.77223       -0.31986
B          4.40858       -2.32957       -0.56883
B          3.10583       -3.21761       -0.39326
B          1.68049       -4.07560       -0.37877
B          0.28526       -3.30246        0.31398
B          0.26057       -4.74978       -0.51769
B         -2.57859       -3.32592        0.01084
B         -1.16592       -4.14459       -0.23605
B         -2.59898       -1.68894        0.39487
B         -3.99252       -2.51627       -0.13538
B         -4.06441       -0.82588        0.32554
B         -1.16696       -2.51077        0.55319
B         -1.17711        2.55781        0.56624
B          3.20121        0.13224        0.57800
B         -1.14600       -0.78659        0.70062
B          4.39910        2.40474       -0.55664
B         -5.32611        1.74943       -0.62640
B         -5.31960        0.11768       -0.39668
B         -5.31917       -1.71289       -0.63531
B         -6.48733       -0.75888       -1.23327
B         -6.49044        0.79384       -1.22927
B          1.72899       -0.79426        0.78167
B         -1.15676       -0.79837       -0.04127
B          0.27527        1.75073        0.85640
B          5.90879        1.69728       -0.77498
B          6.10717       -0.01539       -0.84469
B          5.91286       -1.74574       -0.85444
B          0.34665       -0.39536        2.30064
