45
isomer_3255.log	Energy: -112013.9274686
B         -2.55526       -1.63810       -0.53979
B         -2.56518       -3.27775       -0.16688
B         -1.16852       -4.12065        0.08938
B          0.30177       -3.29826       -0.43933
B         -1.08482       -0.75717       -0.82381
B          1.79038       -0.81048       -0.87428
B          1.67692       -4.09836        0.26289
B         -4.00736       -0.75209       -0.48012
B          1.69093       -2.41649       -0.32178
B         -3.96748       -2.44648       -0.03014
B          0.24499       -4.75057        0.38202
B          3.11557       -3.26351        0.29848
B          3.16251       -1.63991       -0.26042
B          4.62278       -0.84158        0.25760
B          0.37844        1.75798       -0.94691
B          1.75900        2.43871       -0.30085
B          3.20823        1.62068       -0.24637
B          4.64548        0.77729        0.26458
B          4.49676        2.33611        0.51445
B          3.20675        3.24008        0.32652
B          1.79208        4.11522        0.29829
B          0.39512        3.36006       -0.41063
B          0.37898        4.80625        0.42321
B         -2.47131        3.41758       -0.13803
B         -1.05161        4.21875        0.12533
B         -2.50732        1.78157       -0.52505
B         -3.89638        2.62480       -0.00828
B         -3.98369        0.93614       -0.47285
B         -1.06389        2.58632       -0.66668
B         -1.13494       -2.48175       -0.68853
B          3.27215       -0.10914       -0.64941
B         -1.06212        0.86225       -0.81683
B          4.43039       -2.39771        0.49405
B         -5.28641       -1.62528        0.46116
B         -5.25780        0.00664        0.23433
B         -5.23787        1.83669        0.47609
B         -6.42376        0.89589        1.05991
B         -6.44553       -0.65667        1.05322
B          1.81345        0.83537       -0.86719
B         -2.78678       -0.52190        2.13845
B          0.33007       -1.69178       -0.96178
B          5.94606       -1.70886        0.72969
B          6.16431        0.00118        0.80446
B          5.99075        1.73373        0.81509
B         -0.85581       -0.88482        0.12676
