45
isomer_3256.log	Energy: -113264.5733835
B         -2.29724        1.95059        0.54439
B         -2.14315        3.63376        0.13119
B         -0.72815        4.32303       -0.08752
B          0.70538        3.56448        0.59240
B         -0.94308        1.04576        0.93050
B          1.98178        0.98147        1.01039
B          2.09961        4.11721       -0.34020
B         -3.69396        1.19128        0.29529
B          2.09821        2.59342        0.49837
B         -3.52819        2.81162       -0.16797
B          0.72866        4.76785       -0.44600
B          3.39490        3.13725       -0.41951
B          3.39790        1.61125        0.27791
B          4.56284        0.44510       -0.25823
B          0.43593       -1.34888        1.59383
B          1.07475       -2.56753        0.59422
B          2.63956       -1.91460        0.24636
B          4.08564       -1.15483       -0.42838
B          3.70300       -2.75978       -0.83230
B          2.28380       -3.36969       -0.25817
B          0.96585       -4.30453       -0.17147
B         -0.36029       -3.67372        0.52094
B         -0.36963       -5.03303       -0.30002
B         -3.02965       -3.33442       -0.23438
B         -1.81009       -4.45598       -0.19903
B         -2.45755       -1.56518        0.46910
B         -3.92231       -2.04652       -0.46205
B         -3.79784       -0.50768        0.17901
B         -1.93232       -3.15423        0.79364
B         -0.86667        2.77837        0.62535
B          3.22125       -0.17093        0.61132
B         -1.02795       -0.52850        0.92868
B          4.54260        2.09415       -0.89003
B         -4.81979        2.21711       -0.73330
B         -4.89436        0.53271       -0.62565
B         -4.98845       -1.09042       -1.03085
B         -6.02231       -0.04985       -1.60599
B         -5.98357        1.42048       -1.44643
B          1.79408       -0.72694        1.25528
B         -0.70178       -2.06505        0.72949
B          0.59797        1.94637        1.04345
B          5.38026        0.97309       -1.51422
B          5.32278       -0.57065       -1.50766
B          4.90478       -2.07829       -1.43810
B          0.39680        0.33489        1.52636
