45
isomer_3257.log	Energy: -113441.9684372
B         -2.45060        1.82440        0.46685
B         -2.37351        3.45271       -0.11128
B         -0.97885        4.21856       -0.27795
B          0.44140        3.42773        0.34002
B         -1.14805        0.95924        1.03397
B          1.77435        0.86113        0.72278
B          1.83456        4.13248       -0.41941
B         -3.72802        1.01874       -0.01729
B          1.84830        2.55135        0.46128
B         -3.79728        2.69193       -0.16057
B          0.45562        4.75334       -0.55938
B          3.19414        3.24740       -0.34807
B          3.21448        1.67915        0.16600
B          4.64427        0.72754        0.04552
B          0.27736       -1.65373        1.30420
B          1.55261       -2.48838        0.56686
B          3.02481       -1.74429        0.31623
B          4.41094       -0.90729       -0.21593
B          4.26486       -2.56386       -0.59898
B          2.82919       -3.27294       -0.16964
B          1.38057       -3.98061       -0.24312
B         -0.07603       -3.24234        0.39435
B          0.04991       -4.50073       -0.66100
B         -2.66205       -3.19438       -0.79554
B         -1.38507       -4.10503       -0.81006
B         -2.47483       -1.74127        0.39427
B         -3.73908       -2.13626       -0.65086
B         -3.68380       -0.64475       -0.00799
B         -1.81990       -3.42138        0.59244
B         -1.08849        2.68723        0.57265
B          3.25488       -0.02819        0.65278
B         -1.28521       -0.63253        1.02373
B          4.49857        2.36304       -0.68931
B         -5.12716        1.93615       -0.51202
B         -5.17516        0.23858       -0.08156
B         -5.16461       -1.31605       -0.68206
B         -6.36984       -0.47164       -0.99986
B         -6.24488        1.01003       -1.06360
B          1.68397       -0.78885        1.00701
B          0.24909        0.09487        0.96478
B          0.39922        1.88185        0.97200
B          5.51921        1.32872       -1.14778
B          5.69486       -0.21235       -1.10795
B          5.44555       -1.75525       -1.08680
B         -1.17028       -2.28405        1.42028
