45
isomer_3258.log	Energy: -111910.3231264
B         -2.58055       -1.65685       -0.48369
B         -2.58046       -3.29482       -0.10339
B         -1.17829       -4.13007        0.14779
B          0.28478       -3.30326       -0.39393
B         -1.11606       -0.77040       -0.78099
B          1.75898       -0.81060       -0.84948
B          1.66807       -4.09381        0.30312
B         -4.03636       -0.77733       -0.41878
B          1.67053       -2.41454       -0.28916
B         -3.98572       -2.46946        0.03853
B          0.23997       -4.75210        0.43426
B          3.10300       -3.25213        0.32584
B          3.13883       -1.63088       -0.24063
B          4.59860       -0.82344        0.26454
B          0.33464        1.75093       -0.92465
B          1.71607        2.44097       -0.29042
B          3.16941        1.62993       -0.24148
B          4.61379        0.79552        0.26411
B          4.45937        2.35475        0.50794
B          3.16400        3.25187        0.32414
B          1.74511        4.12029        0.30097
B          0.34723        3.35547       -0.39567
B          0.32961        4.80533        0.43176
B         -2.51766        3.40093       -0.10514
B         -1.10007        4.20986        0.14561
B         -2.54847        1.76304       -0.48459
B         -3.93816        2.60214        0.03720
B         -4.02052        0.91101       -0.41922
B         -1.10974        2.57383       -0.63898
B         -1.15728       -2.49456       -0.63766
B          3.23885       -0.10138       -0.63716
B         -1.10087        0.84912       -0.78141
B          4.41497       -2.37938        0.50917
B         -5.30534       -1.65217        0.53451
B         -5.28578       -0.02118        0.30018
B         -5.27287        1.81001        0.53361
B         -6.45064        0.86636        1.12916
B         -6.46520       -0.68629        1.12957
B          1.77442        0.83536       -0.84991
B         -2.20251       -0.41565        1.38746
B          0.30228       -1.69904       -0.92375
B          5.92888       -1.68244        0.73210
B          6.13961        0.02892        0.79781
B          5.95803        1.76067        0.80178
B         -0.14649       -0.80453       -0.49107
