45
isomer_3259.log	Energy: -113395.2214874
B         -2.61369        1.61095        0.50770
B         -2.57727        3.27840        0.09971
B         -1.18771        4.05312       -0.09958
B          0.27443        3.35907        0.55623
B         -1.12258        0.79137        0.77420
B          1.69514        0.81547        0.61712
B          1.64538        4.07359       -0.32420
B         -4.03921        0.85083        0.36873
B          1.72350        2.52066        0.43019
B         -3.92507        2.41147       -0.21695
B          0.21924        4.59190       -0.45841
B          3.05330        3.28735       -0.28469
B          3.15172        1.70047        0.22568
B          4.57677        0.83366       -0.07192
B          0.23271       -1.70229        1.00980
B          1.69349       -2.51777        0.44416
B          3.11628       -1.71584        0.26251
B          4.52423       -0.84148       -0.15865
B          4.37072       -2.46340       -0.71171
B          2.97971       -3.26516       -0.26789
B          1.56437       -4.11547       -0.23740
B          0.21585       -3.36230        0.47998
B          0.15225       -4.72111       -0.34931
B         -2.60506       -3.26857       -0.00819
B         -1.24016       -4.09898       -0.11438
B         -2.64508       -1.61376        0.43148
B         -3.98000       -2.40620       -0.20652
B         -4.06193       -0.81893        0.32855
B         -1.28745       -2.51856        0.62280
B         -1.24183        2.51467        0.60735
B          3.26753       -0.00585        0.58910
B         -1.17158       -0.79086        0.70677
B          4.40296        2.46331       -0.69184
B         -5.21114        1.71399       -0.72690
B         -5.26479        0.03743       -0.45057
B         -5.21121       -1.63017       -0.78090
B         -6.30019       -0.67891       -1.43594
B         -6.33025        0.81317       -1.37910
B          1.66820       -0.80530        0.79479
B          0.25914        0.04009        1.67249
B          0.31639        1.71562        1.06924
B          5.48441        1.51832       -1.19424
B          5.68589       -0.02221       -1.17387
B          5.48297       -1.57734       -1.19881
B          0.25963       -0.05446       -0.05661
