45
isomer_3260.log	Energy: -113477.5617947
B         -2.51378       -1.80085       -0.82325
B         -2.37048       -3.13498        0.22914
B         -1.04005       -3.57032        0.94082
B          0.23538       -3.19176       -0.17937
B         -1.02830       -0.78081       -0.80668
B          1.75160       -0.83345       -0.95854
B          1.75459       -3.91906        0.57013
B         -3.96447       -0.86114       -0.44382
B          1.78865       -2.47598       -0.43083
B         -3.85064       -2.42690        0.13162
B          0.37892       -4.17213        1.12440
B          3.11128       -3.22648        0.26867
B          3.17557       -1.65085       -0.36218
B          4.57227       -0.74413       -0.00984
B          0.34099        1.66392       -0.67236
B          1.77958        2.43772       -0.28821
B          3.24032        1.71416       -0.35734
B          4.70486        0.89009       -0.31715
B          4.51194        2.48453        0.46324
B          3.14765        3.26245        0.28639
B          1.73183        4.05438        0.45793
B          0.32544        3.30856       -0.12677
B          0.31763        4.66052        0.66251
B         -2.52657        3.30699        0.20811
B         -1.10519        4.07811        0.41446
B         -2.57003        1.73520       -0.44364
B         -3.89602        2.56219        0.18723
B         -3.98131        0.89789       -0.53421
B         -1.12922        2.47769       -0.36650
B         -1.01022       -1.96577        0.36745
B          3.28573        0.04977       -0.77876
B         -1.07552        0.84719       -0.67496
B          4.52030       -2.37324        0.48071
B         -5.13675       -1.63705        0.52330
B         -5.35199        0.04228       -0.00180
B         -5.23574        1.72729        0.43000
B         -6.33989        0.82370        1.03049
B         -6.22737       -0.67076        1.15266
B          1.72472        0.80586       -0.75163
B         -2.56474        0.01035       -0.68763
B          0.34322       -1.76047       -1.05381
B          5.73674       -1.51823        0.76711
B          5.93492        0.03839        0.72953
B          5.65337        1.51379        0.83672
B         -1.14924       -2.67863       -1.19331
