45
isomer_3261.log	Energy: -112888.0372716
B         -2.54079       -1.49968       -0.66999
B         -2.49577       -3.18374       -0.20205
B         -1.11568       -3.98684        0.04621
B          0.33060       -3.25289       -0.47273
B         -1.08441       -0.70322       -0.87909
B          1.77460       -0.78242       -0.90246
B          1.67646       -4.04154        0.24536
B         -3.86280       -0.65896       -0.53835
B          1.72378       -2.39949       -0.34251
B         -3.80303       -2.31931       -0.08503
B          0.29381       -4.59101        0.35360
B          3.08562       -3.20661        0.29460
B          3.16730       -1.62268       -0.24432
B          4.59676       -0.79159        0.27253
B          0.36090        1.72394       -0.96247
B          1.75842        2.43610       -0.30244
B          3.17022        1.64593       -0.24182
B          4.57916        0.80845        0.26045
B          4.49697        2.40047        0.57666
B          3.10989        3.22196        0.33179
B          1.72597        4.07190        0.32055
B          0.36663        3.33282       -0.39645
B          0.32232        4.66811        0.42721
B         -2.43435        3.36933       -0.10647
B         -1.07375        4.12865        0.13783
B         -2.46488        1.72727       -0.55787
B         -3.75222        2.57218        0.00484
B         -3.84367        0.98210       -0.48567
B         -1.07372        2.53493       -0.66999
B         -1.10080       -2.43213       -0.76745
B          3.26898       -0.04215       -0.62941
B         -1.04617        0.86024       -0.86130
B          4.49571       -2.39935        0.55287
B         -5.06935       -1.52603        0.41503
B         -5.03647        0.11085        0.22594
B         -5.02688        1.78992        0.50379
B         -6.07280        0.94571        1.12697
B         -6.11834       -0.58665        1.12961
B          1.79170        0.84690       -0.88539
B         -3.32849       -0.89165        1.96451
B          0.36869       -1.63573       -1.00333
B          5.80648       -1.53888        0.76639
B          5.96819        0.01154        0.81695
B          5.76690        1.56893        0.81687
B         -1.66172       -1.66569        0.61598
