45
isomer_3262.log	Energy: -113077.8755570
B          2.57634        1.64759       -0.43578
B          2.44449        3.25927       -0.00883
B          1.08093        4.15866        0.10566
B         -0.31573        3.36721       -0.46513
B          1.06440        0.82113       -0.95607
B         -1.69975        0.80172       -0.89086
B         -1.69104        4.11448        0.24824
B          3.97770        0.80250       -0.36758
B         -1.70293        2.45930       -0.36215
B          3.90422        2.37657        0.22586
B         -0.34407        4.76154        0.38810
B         -3.06924        3.20750        0.27686
B         -3.07904        1.67421       -0.26936
B         -4.48917        0.81154        0.18229
B         -0.45935       -1.87964       -1.10947
B         -1.78178       -2.58489       -0.30264
B         -3.12873       -1.75155       -0.20787
B         -4.47323       -0.88777        0.23898
B         -4.50670       -2.53798        0.65346
B         -3.06452       -3.30160        0.39213
B         -1.60080       -4.13740        0.41829
B         -0.28488       -3.37086       -0.39350
B         -0.20677       -4.68926        0.50439
B          2.57440       -3.32701       -0.14404
B          1.16674       -4.02504        0.09490
B          2.64170       -1.70512       -0.57109
B          3.98428       -2.53615        0.03005
B          4.01431       -0.89607       -0.36588
B          1.20403       -2.49681       -0.65546
B          1.13206        2.62035       -0.70907
B         -3.16737       -0.01531       -0.59320
B          1.52835       -0.66248       -0.88245
B         -4.49344        2.46708        0.54155
B          5.18987        1.66658        0.69780
B          5.23029       -0.02780        0.40123
B          5.23855       -1.71248        0.61576
B          6.34620       -0.77524        1.29415
B          6.33002        0.74737        1.32666
B         -1.74079       -0.87139       -0.91926
B          1.17363        1.60107        0.53702
B         -0.28184        1.66956       -0.95425
B         -5.72215        1.59547        0.86374
B         -5.86394       -0.01587        0.87499
B         -5.71414       -1.60307        0.94952
B          0.07891       -0.81991       -0.29769
