45
isomer_3263.log	Energy: -113388.2121025
B         -2.49909       -1.59687       -0.22317
B         -2.62919       -3.22385        0.47653
B         -1.20531       -3.89678        0.58637
B          0.13498       -3.27492       -0.49108
B         -1.16394       -0.93929       -1.00645
B          1.80683       -0.78999       -0.96872
B          1.59982       -3.91088        0.39944
B         -3.86375       -0.75424        0.10576
B          1.75397       -2.47802       -0.45796
B         -3.85660       -2.30663        0.57308
B          0.20697       -4.34744        0.73125
B          3.02793       -3.20347        0.27891
B          3.17898       -1.65278       -0.29382
B          4.50428       -0.76331        0.24773
B          0.29888        1.73150       -0.94907
B          1.72404        2.49485       -0.34796
B          3.15408        1.74615       -0.18800
B          4.60605        0.89899        0.05954
B          4.36750        2.52724        0.72250
B          3.04420        3.35544        0.28208
B          1.65313        4.14544        0.28977
B          0.26563        3.31934       -0.38625
B          0.22397        4.72513        0.35879
B         -2.52383        3.34633       -0.08721
B         -1.17990        4.12751        0.06130
B         -2.52799        1.63614       -0.50909
B         -3.87120        2.56407        0.07915
B         -3.89639        0.93598       -0.05059
B         -1.19564        2.49608       -0.74242
B         -1.61633       -2.92588       -0.79518
B          3.34218        0.03634       -0.66998
B         -1.22032        0.74512       -0.99112
B          4.40443       -2.39529        0.74419
B         -5.23999       -1.45603        0.89067
B         -5.25461        0.12252        0.31336
B         -5.23923        1.80694        0.55844
B         -6.34865        0.95694        1.20622
B         -6.37154       -0.53809        1.33186
B          1.74499        0.84819       -0.70830
B         -0.71476       -2.46252       -1.90440
B          0.49925       -1.72099       -1.43839
B          5.50032       -1.50683        1.26137
B          5.66573        0.05192        1.25464
B          5.42800        1.57667        1.25447
B          0.28214       -0.05071       -0.85824
