45
isomer_3264.log	Energy: -112515.8742607
B          2.60324        1.89401       -0.41058
B          2.56322        3.52029       -0.00475
B          1.12700        4.34301        0.20958
B         -0.28464        3.50417       -0.36284
B          1.18330        1.10713       -0.73655
B         -1.74015        0.92316       -0.83165
B         -1.68979        4.23953        0.30426
B          4.05343        0.96169       -0.31832
B         -1.66597        2.57292       -0.28002
B          3.95222        2.64180        0.14644
B         -0.27951        4.89329        0.45371
B         -3.09120        3.37022        0.32146
B         -3.12812        1.74597       -0.22249
B         -4.57314        0.89788        0.28693
B         -0.27542       -1.65549       -0.91941
B         -1.74545       -2.43610       -0.21529
B         -3.16361       -1.60859       -0.18028
B         -4.56157       -0.74320        0.30645
B         -4.44282       -2.31554        0.60566
B         -3.11233       -3.24814        0.41655
B         -1.71925       -4.18779        0.46875
B         -0.31770       -3.44259       -0.18613
B         -0.23982       -4.87173        0.60335
B          2.65223       -3.39118       -0.00617
B          1.21489       -4.31481        0.28790
B          2.72074       -1.70450       -0.38873
B          4.06536       -2.47316        0.15451
B          4.09471       -0.80789       -0.31633
B          1.30834       -2.56873       -0.56217
B          1.19219        2.74112       -0.57021
B         -3.23123        0.16189       -0.60485
B          1.33022       -0.82440       -0.67104
B         -4.43513        2.49593        0.53561
B          5.25150        1.81785        0.66114
B          5.27885        0.16310        0.42230
B          5.31063       -1.63279        0.65194
B          6.39830       -0.66029        1.25630
B          6.39752        0.85158        1.26879
B         -1.76752       -0.77818       -0.82641
B          0.75518       -0.17769       -1.20307
B         -0.25637        1.91828       -0.89114
B         -5.85013        1.68704        0.74316
B         -6.01545        0.05701        0.81947
B         -5.83676       -1.59228        0.85576
B         -0.03001       -3.07379       -1.07158
