45
isomer_3265.log	Energy: -113478.2674899
B          2.52249        1.65746       -0.56514
B          2.48400        3.31810        0.06018
B          1.10912        4.09936        0.27308
B         -0.32305        3.38749       -0.36000
B          1.15784        0.90662       -1.02256
B         -1.77968        0.89374       -0.94909
B         -1.70570        4.14595        0.40926
B          3.93997        0.93082       -0.28815
B         -1.76231        2.55350       -0.44784
B          3.82655        2.50903        0.11654
B         -0.30212        4.69751        0.56494
B         -3.07331        3.29001        0.35173
B         -3.15317        1.74900       -0.22789
B         -4.49495        0.78802        0.21881
B         -0.18040       -1.60462       -0.45454
B         -1.65579       -2.47757       -0.37451
B         -3.11278       -1.70536       -0.39039
B         -4.57575       -0.85014       -0.15086
B         -4.38057       -2.46529        0.46426
B         -3.01458       -3.30665        0.08257
B         -1.64192       -4.12905        0.13811
B         -0.13261       -3.32211       -0.58124
B         -0.29063       -4.53997        0.54972
B          2.48708       -3.11560        0.42266
B          1.12811       -3.87423        0.48778
B          2.57754       -1.70286       -0.63199
B          3.84485       -2.29766        0.37991
B          3.94611       -0.81141       -0.27276
B          1.33250       -2.74651       -1.07097
B          1.16295        2.60730       -0.64250
B         -3.25746        0.04937       -0.67044
B          1.28113       -0.72692       -0.73152
B         -4.42503        2.45154        0.72527
B          5.21296        1.73079        0.52467
B          5.28312        0.08342        0.11230
B          5.22419       -1.51612        0.64838
B          6.31515       -0.59679        1.22889
B          6.30627        0.87899        1.16166
B         -1.67045       -0.75721       -0.73502
B          1.11599       -2.04786        0.53126
B         -0.34984        1.86648       -1.05036
B         -5.56122        1.51745        1.14156
B         -5.72524       -0.02846        1.06825
B         -5.44137       -1.54703        1.02159
B         -0.24799        0.05742       -1.06563
