45
isomer_3267.log	Energy: -113400.8861277
B         -2.61570       -1.42787       -0.51443
B         -2.50213       -3.04449        0.21892
B         -1.39969       -3.91234        0.90691
B          0.20916       -3.32906       -0.74204
B         -1.23791       -0.70850       -1.12409
B          1.74410       -0.81017       -0.79852
B          1.52889       -4.01513        0.24148
B         -4.01886       -0.64684       -0.30409
B          1.67087       -2.52396       -0.51194
B         -3.89835       -2.17397        0.29320
B          0.02246       -4.40348        0.54464
B          2.92819       -3.28054        0.28142
B          3.13767       -1.69682       -0.24554
B          4.57518       -0.87392        0.08003
B          0.38388        1.78146       -1.03456
B          1.85113        2.57399       -0.47346
B          3.21431        1.70540       -0.18332
B          4.62426        0.80701        0.11676
B          4.47865        2.48679        0.70620
B          3.16772        3.31475        0.27507
B          1.75630        4.11240        0.31517
B          0.36775        3.38423       -0.43982
B          0.33551        4.67058        0.48137
B         -2.47356        3.40020       -0.09151
B         -1.08614        4.12578        0.13615
B         -2.57377        1.73865       -0.60572
B         -3.84806        2.59084        0.16149
B         -4.01010        1.01720       -0.36567
B         -1.16368        2.57200       -0.62327
B         -1.29496       -2.35835       -0.88501
B          3.31072        0.01752       -0.63260
B         -1.18895        0.89450       -1.03984
B          4.28773       -2.46468        0.73709
B         -5.17355       -1.44957        0.82297
B         -5.22552        0.22233        0.47189
B         -5.12615        1.89696        0.72924
B         -6.23164        1.00256        1.44409
B         -6.24592       -0.49331        1.48522
B          1.82166        0.91381       -0.85168
B         -1.24672       -4.00589       -0.65828
B          0.30552       -1.59855       -1.03379
B          5.37762       -1.56835        1.28509
B          5.64809       -0.04051        1.24308
B          5.50905        1.51117        1.24502
B          0.30497        0.08621       -1.06333
