45
isomer_0327.log	Energy: -113382.4899403
B         -2.67898       -1.41393       -0.64578
B         -2.53203       -3.13948        0.03666
B         -1.50975       -4.44318       -0.08335
B          0.16111       -3.19760       -0.54915
B         -1.23003       -0.53667       -1.02758
B          1.70504       -0.77581       -0.82593
B          1.49449       -4.04899        0.19088
B         -4.03880       -0.69632       -0.39098
B          1.68670       -2.45817       -0.53085
B         -3.87361       -2.20096        0.27978
B         -0.00404       -4.65030        0.23796
B          2.90004       -3.35615        0.19670
B          3.11997       -1.70522       -0.30041
B          4.54826       -0.94097        0.00527
B          0.39284        1.93726       -1.19022
B          1.80817        2.59926       -0.49388
B          3.14763        1.69345       -0.17554
B          4.51194        0.73391        0.28087
B          4.38588        2.37473        0.83036
B          3.09732        3.24855        0.36674
B          1.74231        4.14040        0.34291
B          0.38743        3.47780       -0.52480
B          0.34875        4.75740        0.46499
B         -2.40771        3.41801        0.01653
B         -1.03930        4.21434        0.17811
B         -2.50202        1.80736       -0.55725
B         -3.76738        2.56841        0.25366
B         -3.91571        0.99108       -0.23265
B         -1.13398        2.71314       -0.76041
B         -1.23693       -2.12874       -0.52416
B          3.27694        0.00373       -0.64193
B         -1.12781        1.03157       -1.11101
B          4.26433       -2.56826        0.64855
B         -5.22452       -1.51401        0.69842
B         -5.25339        0.17813        0.37885
B         -4.98623        1.77720        0.88002
B         -6.07969        0.84994        1.57360
B         -6.27344       -0.61321        1.39287
B          1.82367        0.90998       -0.97986
B         -0.94388       -3.21885        0.69757
B          0.30214       -1.60031       -1.12159
B          5.28756       -1.64962        1.25565
B          5.59620       -0.12931        1.28423
B          5.46829        1.41489        1.34082
B          0.30222        0.14551       -1.16466
