45
isomer_3270.log	Energy: -111227.7569015
B          2.55815        1.79362       -0.46533
B          2.53036        3.42807       -0.07113
B          1.11420        4.23768        0.18542
B         -0.33430        3.39127       -0.36508
B          1.10895        0.88547       -0.77192
B         -1.76628        0.87838       -0.84356
B         -1.73132        4.15272        0.33698
B          4.02834        0.93793       -0.40612
B         -1.70516        2.47875       -0.26954
B          3.94903        2.62504        0.06548
B         -0.31453        4.83355        0.47544
B         -3.15205        3.28710        0.35081
B         -3.16026        1.67036       -0.22945
B         -4.60692        0.83447        0.26707
B         -0.29939       -1.65835       -0.93876
B         -1.66981       -2.37667       -0.31209
B         -3.13651       -1.59038       -0.25803
B         -4.59513       -0.78447        0.25288
B         -4.41503       -2.34293        0.48364
B         -3.10469       -3.21676        0.29380
B         -1.67151       -4.06121        0.26499
B         -0.28582       -3.26732       -0.42344
B         -0.24494       -4.72367        0.39168
B          2.57912       -3.26755       -0.12981
B          1.17493       -4.10207        0.11233
B          2.58305       -1.62620       -0.49531
B          3.98596       -2.44646        0.02103
B          4.04063       -0.75037       -0.42092
B          1.15819       -2.45949       -0.65833
B          1.12129        2.60879       -0.61391
B         -3.23436        0.14283       -0.63908
B          1.12075       -0.73402       -0.78612
B         -4.44950        2.39110        0.52513
B          5.28155        1.82564        0.55611
B          5.28941        0.19660        0.30791
B          5.30675       -1.63647        0.52576
B          6.46800       -0.67845        1.13074
B          6.45669        0.87418        1.14435
B         -1.75430       -0.76754       -0.85799
B          1.66391       -1.59294        1.66551
B         -0.32451        1.79155       -0.90852
B         -5.95183        1.66718        0.74029
B         -6.13408       -0.04794        0.79121
B         -5.92369       -1.77641        0.78070
B          0.44665       -1.02462       -0.80482
