45
isomer_3271.log	Energy: -112898.0636411
B          2.55694        1.71956       -0.39656
B          2.53900        3.35780       -0.01778
B          1.12713        4.18228        0.21383
B         -0.32206        3.34365       -0.34667
B          1.10352        0.82147       -0.71262
B         -1.77057        0.83919       -0.81963
B         -1.72068        4.12394        0.33108
B          4.01856        0.85147       -0.31135
B         -1.70213        2.44423       -0.25964
B          3.94862        2.54353        0.14369
B         -0.29964        4.79346        0.48072
B         -3.14919        3.27112        0.33535
B         -3.16480        1.64917       -0.23006
B         -4.62488        0.83079        0.25625
B         -0.32544       -1.71121       -0.87339
B         -1.70982       -2.41149       -0.25708
B         -3.16997       -1.61177       -0.22834
B         -4.62744       -0.78825        0.25711
B         -4.46417       -2.34603        0.50440
B         -3.15950       -3.23316        0.33878
B         -1.73371       -4.09051        0.33541
B         -0.33262       -3.31537       -0.34316
B         -0.31480       -4.76437        0.48576
B          2.52838       -3.33824       -0.01425
B          1.11390       -4.15800        0.21823
B          2.55152       -1.70048       -0.39475
B          3.94058       -2.52829        0.14636
B          4.01588       -0.83694       -0.31046
B          1.12134       -2.52258       -0.56766
B          1.12938        2.54602       -0.57033
B         -3.24759        0.11862       -0.62650
B          1.10095       -0.79812       -0.71176
B         -4.45666        2.38830        0.50190
B          5.26781        1.73697        0.65804
B          5.26409        0.10568        0.42496
B          5.26232       -1.72536        0.65987
B          6.42462       -0.77208        1.27027
B          6.42708        0.78065        1.26946
B         -1.77318       -0.80683       -0.81876
B          2.78787       -0.28493       -1.31925
B         -0.31997        1.73891       -0.87521
B         -5.96795        1.67976        0.70518
B         -6.16620       -0.03313        0.76963
B         -5.97121       -1.76342        0.77761
B          0.26466       -0.32606       -0.07869
