45
isomer_3273.log	Energy: -112647.2701734
B         -2.65265       -1.50620       -0.35421
B         -2.68669       -3.15342        0.07598
B         -1.26536       -4.04737        0.33758
B          0.21757       -3.26309       -0.25995
B         -1.03808       -0.53797       -0.64252
B          1.74888       -0.80680       -0.80347
B          1.57552       -4.06079        0.45586
B         -4.04210       -0.58453       -0.27872
B          1.62834       -2.39684       -0.18732
B         -4.04049       -2.26316        0.21402
B          0.14032       -4.67183        0.61494
B          3.02105       -3.25608        0.44684
B          3.10876       -1.64966       -0.16975
B          4.58750       -0.85838        0.30360
B          0.38473        1.81870       -0.90344
B          1.80017        2.47387       -0.30273
B          3.22236        1.62590       -0.25216
B          4.63958        0.76493        0.25842
B          4.54091        2.34093        0.47728
B          3.25651        3.25502        0.27817
B          1.87018        4.15524        0.25563
B          0.44652        3.42659       -0.40191
B          0.47854        4.86167        0.39029
B         -2.40273        3.55055       -0.06230
B         -0.96207        4.31860        0.14740
B         -2.48111        1.91084       -0.41736
B         -3.82454        2.78249        0.11367
B         -3.96962        1.10766       -0.31090
B         -1.03391        2.68681       -0.60851
B         -1.21047       -2.41701       -0.51731
B          3.24690       -0.11702       -0.60815
B         -1.05652        0.99024       -0.72297
B          4.38445       -2.41586        0.60242
B         -5.30807       -1.39174        0.71658
B         -5.23479        0.23145        0.44653
B         -5.15643        2.03844        0.64330
B         -6.32991        1.15593        1.27258
B         -6.40741       -0.38039        1.31090
B          1.80670        0.85337       -0.83436
B         -1.80744       -3.81964       -1.04998
B          0.29932       -1.66098       -0.85926
B          5.87016       -1.71134        0.78590
B          6.11326       -0.03448        0.79728
B          5.98447        1.65768        0.75734
B         -1.46230       -1.00233       -1.15523
