45
isomer_3274.log	Energy: -113219.6978545
B          2.37619        1.83516       -0.39866
B          2.27877        3.52372        0.07163
B          0.84723        4.27177        0.17047
B         -0.50537        3.37370       -0.43785
B          1.08412        0.88266       -0.80390
B         -1.80263        0.72694       -0.75616
B         -1.96458        4.10796        0.23737
B          3.83970        1.05123       -0.21414
B         -1.84519        2.41761       -0.34439
B          3.63786        2.68276        0.24286
B         -0.58303        4.77151        0.39595
B         -3.31072        3.16625        0.21806
B         -3.21098        1.56494       -0.23177
B         -4.61771        0.62340        0.21622
B         -0.51579       -1.77630       -1.26721
B         -1.60934       -2.52294       -0.30839
B         -3.06183       -1.78963       -0.12872
B         -4.47691       -1.02694        0.32510
B         -4.31442       -2.69502        0.76684
B         -2.82306       -3.34748        0.43582
B         -1.30086       -4.04542        0.40402
B          0.04034       -3.30037       -0.39717
B          0.12998       -4.62095        0.50077
B          3.03250       -3.34975       -0.07594
B          1.58872       -4.09474        0.15429
B          2.91346       -1.63992       -0.51655
B          4.32277       -2.30658        0.11846
B          4.06700       -0.69190       -0.27093
B          1.68644       -2.68413       -0.62957
B          1.03721        2.65015       -0.59827
B         -3.27742       -0.12870       -0.52885
B          1.93189       -0.39206       -0.69185
B         -4.69630        2.31076        0.52119
B          4.95950        1.95462        0.73262
B          5.13893        0.31604        0.47103
B          5.44145       -1.38051        0.71238
B          6.34890       -0.32916        1.34870
B          6.15463        1.15178        1.37660
B         -1.75690       -0.86634       -0.94402
B          0.78740       -1.37745       -0.64844
B         -0.41888        1.73259       -0.88726
B         -5.81812        1.33387        0.89586
B         -5.86586       -0.26454        1.00912
B         -5.54051       -1.83788        1.11112
B         -0.32859        0.01932       -1.35643
