45
isomer_3275.log	Energy: -113463.9905796
B         -2.50760        1.68683        0.26720
B         -2.41252        3.35969       -0.21921
B         -1.04023        4.10141       -0.34574
B          0.40555        3.35103        0.46688
B         -1.06433        0.84008        0.47517
B          1.83895        0.82015        0.92815
B          1.82634        4.01171       -0.28323
B         -3.97248        1.04999        0.36127
B          1.85411        2.46845        0.47933
B         -3.83172        2.52829       -0.37856
B          0.41859        4.56175       -0.56596
B          3.23282        3.21534       -0.14753
B          3.26041        1.63932        0.38053
B          4.63862        0.69098        0.03151
B          0.21018       -1.71775        1.11582
B          1.65416       -2.44716        0.35667
B          3.15074       -1.77207        0.31194
B          4.59047       -0.97172        0.10401
B          4.33539       -2.49148       -0.70687
B          2.87095       -3.26068       -0.43459
B          1.41404       -3.81280       -0.63047
B          0.09701       -3.25023        0.43246
B         -0.11043       -4.06231       -0.95306
B         -2.66014       -3.12980        0.22601
B         -1.46919       -3.95718       -0.28306
B         -2.57973       -1.47536        0.56593
B         -4.03292       -2.20370        0.04373
B         -4.01422       -0.62232        0.45986
B         -1.13287       -2.30593       -0.55461
B         -1.10107        2.53152        0.31010
B          3.35728       -0.08069        0.79813
B         -1.07163       -0.81728        0.21901
B          4.58023        2.36677       -0.45697
B         -5.21799        1.86191       -0.64459
B         -5.33949        0.22685       -0.15354
B         -5.31181       -1.46618       -0.40193
B         -6.46210       -0.52406       -1.00862
B         -6.44491        0.95884       -1.06779
B          1.74263       -0.85640        0.89392
B         -1.31712       -2.46442        1.20006
B          0.34402        1.72784        0.95105
B          5.68765        1.42176       -0.93262
B          5.80134       -0.11169       -0.98669
B          5.46911       -1.61858       -1.12347
B          0.31392       -0.00071        0.90035
