45
isomer_3276.log	Energy: -112372.9918506
B          2.61836       -1.64783        0.32757
B          2.61587       -3.27800       -0.08490
B          1.21195       -4.10988       -0.33746
B         -0.24607       -3.29570        0.23606
B          1.15624       -0.76921        0.65791
B         -1.71786       -0.81431        0.75635
B         -1.63595       -4.07408       -0.46159
B          4.07249       -0.76540        0.26442
B         -1.63378       -2.40681        0.16364
B          4.01869       -2.44827       -0.22556
B         -0.20867       -4.72790       -0.62093
B         -3.07190       -3.23390       -0.45237
B         -3.10331       -1.62415        0.14626
B         -4.56925       -0.80874       -0.32725
B         -0.29542        1.74700        0.86671
B         -1.68428        2.44768        0.26102
B         -3.13723        1.63596        0.21166
B         -4.58609        0.80988       -0.29479
B         -4.43590        2.37380       -0.50949
B         -3.13955        3.26872       -0.32194
B         -1.72138        4.13828       -0.29685
B         -0.31533        3.36163        0.36960
B         -0.30808        4.82751       -0.42926
B          2.54622        3.41634        0.04938
B          1.12520        4.22829       -0.17020
B          2.58279        1.77134        0.39615
B          3.96593        2.62226       -0.12385
B          4.05492        0.92258        0.29828
B          1.14496        2.57715        0.58187
B          1.19768       -2.49017        0.48022
B         -3.20065       -0.10288        0.57389
B          1.13939        0.84996        0.69039
B         -4.38666       -2.35933       -0.60443
B          5.33207       -1.61975       -0.71944
B          5.31335        0.00629       -0.45285
B          5.29606        1.84170       -0.65001
B          6.46834        0.91142       -1.27660
B          6.48449       -0.64091       -1.30774
B         -1.73498        0.83130        0.78936
B          0.81617       -1.62547        2.76292
B         -0.25954       -1.70224        0.79753
B         -5.90358       -1.66002       -0.79738
B         -6.11676        0.05204       -0.82712
B         -5.93701        1.78376       -0.79893
B          0.18807       -0.21997        0.40975
