45
isomer_3279.log	Energy: -112932.8431420
B          2.54653        1.80456       -0.45610
B          2.49562        3.43344       -0.05415
B          1.08983        4.23050        0.19594
B         -0.34186        3.39820       -0.35278
B          1.11608        0.90314       -0.76694
B         -1.76167        0.87845       -0.84589
B         -1.73044        4.14575        0.34325
B          4.00605        0.98048       -0.40074
B         -1.70951        2.48999       -0.26429
B          3.89896        2.63846        0.07763
B         -0.32091        4.79868        0.47745
B         -3.14198        3.28333        0.35328
B         -3.15646        1.67727       -0.22725
B         -4.60140        0.82672        0.25623
B         -0.33115       -1.64505       -0.94637
B         -1.68356       -2.38593       -0.31799
B         -3.13521       -1.59723       -0.26847
B         -4.58295       -0.78768        0.23331
B         -4.42878       -2.35644        0.47167
B         -3.08129       -3.22108        0.27694
B         -1.66217       -4.05875        0.25560
B         -0.29580       -3.26538       -0.42083
B         -0.25017       -4.69600        0.38792
B          2.71351       -3.23413       -0.12343
B          1.17588       -4.10042        0.14019
B          2.62791       -1.55623       -0.48810
B          4.04878       -2.35417        0.02193
B          4.05650       -0.68933       -0.41700
B          1.17997       -2.41889       -0.65749
B          1.12153        2.61528       -0.60012
B         -3.23081        0.13306       -0.63977
B          1.16395       -0.65790       -0.78822
B         -4.47091        2.40607        0.53302
B          5.22964        1.88329        0.56181
B          5.26806        0.24953        0.30889
B          5.31850       -1.53120        0.51370
B          6.43424       -0.57008        1.11538
B          6.40838        0.95110        1.14176
B         -1.75345       -0.76843       -0.86369
B          1.83668       -2.88672        0.80219
B         -0.32147        1.79694       -0.90111
B         -5.90025        1.61662        0.71810
B         -6.06571       -0.04370        0.75408
B         -5.86159       -1.70060        0.73586
B          0.08290       -0.61551        0.12458
