45
isomer_0328.log	Energy: -113472.8018366
B         -1.90208       -1.57227        0.07581
B         -2.38757       -3.33018       -0.24621
B         -1.19508       -4.21502       -0.66826
B          0.26417       -3.33764       -1.17148
B         -1.25291       -0.74282       -1.31439
B          1.48792       -0.75559       -0.59224
B          1.46232       -4.17484       -0.17819
B         -3.22640       -0.82720        0.69301
B          1.29894       -2.40051       -0.18490
B         -3.39012       -2.42943        0.49436
B          0.17742       -4.84845       -0.54620
B          2.71526       -3.28658        0.28688
B          2.87287       -1.72489       -0.09008
B          4.22733       -0.83275        0.45029
B          0.29678        1.83434       -1.39583
B          1.59889        2.57951       -0.57078
B          2.96721        1.79161       -0.15799
B          4.11836        0.82882        0.65581
B          4.04538        2.50885        0.99489
B          2.82828        3.36723        0.26785
B          1.50761        4.24758       -0.02156
B          0.21166        3.46872       -0.89524
B          0.11856        4.87449       -0.15435
B         -2.56457        3.39390       -0.34325
B         -1.26543        4.23556       -0.45955
B         -2.36912        1.67287       -0.42296
B         -3.69995        2.49193        0.26905
B         -3.45063        0.88216        0.45175
B         -1.27782        2.61667       -1.21202
B         -1.26831       -2.49706       -1.20408
B          3.03945        0.02942       -0.40102
B         -1.25188        0.93495       -1.34047
B          3.93533       -2.47854        0.99474
B         -4.61904       -1.65202        1.24976
B         -4.46638        0.01770        1.38703
B         -4.89641        1.61118        0.97693
B         -5.97622        0.65166        1.53612
B         -5.85466       -0.82299        1.68053
B          1.68176        0.93163       -1.01006
B         -0.14253       -1.36824       -0.01053
B          0.26524       -1.73738       -1.69752
B          4.93138       -1.54136        1.68001
B          5.15990       -0.00154        1.73415
B          5.02342        1.57348        1.70247
B          0.22166        0.03304       -1.29229
