45
isomer_3281.log	Energy: -113183.2505025
B         -2.46782        1.77832        0.50605
B         -2.39507        3.42833        0.04117
B         -0.98326        4.19545       -0.18416
B          0.41818        3.40798        0.35119
B         -1.06232        0.89549        0.84432
B          1.75114        0.91811        0.83681
B          1.81773        4.13699       -0.40441
B         -3.90958        1.01488        0.37397
B          1.77328        2.51278        0.25377
B         -3.77724        2.61783       -0.10051
B          0.41911        4.77091       -0.51632
B          3.18648        3.20916       -0.41338
B          3.18332        1.66530        0.16727
B          4.57127        0.75645       -0.27241
B          0.14603       -1.72610        0.91001
B          1.59794       -2.47074        0.25409
B          3.00811       -1.69403        0.24248
B          4.41678       -0.92827       -0.22133
B          4.34866       -2.55774       -0.51957
B          2.88211       -3.29716       -0.28051
B          1.45363       -4.09903       -0.31186
B          0.10980       -3.27746        0.32584
B         -0.01452       -4.65252       -0.45111
B         -2.74920       -3.23966       -0.04423
B         -1.40856       -4.06161       -0.23957
B         -2.61320       -1.52806        0.47916
B         -4.00193       -2.30629       -0.08105
B         -3.99153       -0.66908        0.36725
B         -1.32877       -2.38366        0.81218
B         -1.06381        2.61097        0.61753
B          3.17830        0.04334        0.57906
B         -1.25302       -0.59958        0.80237
B          4.57234        2.40895       -0.63502
B         -5.12008        1.89802       -0.61209
B         -5.17502        0.26273       -0.36282
B         -5.27993       -1.39517       -0.58942
B         -6.33978       -0.44982       -1.24893
B         -6.26915        1.08102       -1.24937
B          1.71393       -0.71983        0.83353
B         -1.42220       -2.44558       -0.86294
B          0.40079        1.76978        0.92644
B          5.85315        1.46846       -0.85813
B          5.91220       -0.13854       -0.81956
B          5.66055       -1.76378       -0.78199
B          0.25118       -0.44758        1.53621
