45
isomer_3283.log	Energy: -113372.9389080
B          2.85165       -1.65903        0.54584
B          2.82636       -3.13864       -0.43307
B          1.43365       -3.87794       -0.70462
B          0.02881       -3.33721        0.19048
B          1.51260       -0.87453        1.00169
B         -1.47928       -0.86171        1.16952
B         -1.39851       -3.93722       -0.65206
B          4.12701       -0.74459        0.27766
B         -1.45547       -2.45567        0.34864
B          4.12006       -2.23828       -0.42930
B          0.01815       -4.37431       -1.03194
B         -2.75510       -3.25305       -0.32261
B         -2.90464       -1.73398        0.45979
B         -4.35436       -1.01340       -0.10159
B         -0.49832        1.85796        0.90143
B         -1.96080        2.52069        0.21592
B         -3.34666        1.66133        0.36936
B         -4.62416        0.64071       -0.11103
B         -4.61663        2.23443       -0.75395
B         -3.27779        3.11574       -0.54676
B         -1.88167        3.94212       -0.71356
B         -0.46453        3.32100        0.16012
B         -0.43349        4.43037       -0.97183
B          2.30932        3.19370       -0.23115
B          0.96801        3.91140       -0.58210
B          2.41200        1.58472        0.70531
B          3.62876        2.44122       -0.17967
B          3.92706        0.96678        0.39661
B          0.99220        2.35890        0.30463
B          1.46960       -2.39977        0.15331
B         -3.21866       -0.07885        0.67952
B          1.00646        0.80567        1.15626
B         -4.22297       -2.62670       -0.51896
B          5.43786       -1.34569       -0.68639
B          5.34643        0.24941       -0.09740
B          5.11067        1.86090       -0.49697
B          6.29552        1.15550       -1.12987
B          6.42718       -0.31498       -1.23016
B         -1.98721        0.96936        1.07707
B         -0.68316        0.59408        1.92856
B         -0.01669       -1.97987        1.07851
B         -5.44216       -1.86548       -0.92082
B         -5.73648       -0.32399       -1.02766
B         -5.68371        1.23014       -1.15588
B          0.19311       -0.61123        1.90911
