45
isomer_3286.log	Energy: -111059.9574741
B          2.61697       -1.68562        0.36583
B          2.60933       -3.32341       -0.01521
B          1.20297       -4.15422       -0.25754
B         -0.25395       -3.32316        0.29416
B          1.15721       -0.79481        0.67314
B         -1.71743       -0.82618        0.76051
B         -1.64422       -4.10911       -0.39414
B          4.07502       -0.81056        0.29174
B         -1.63761       -2.43013        0.19889
B          4.01617       -2.50231       -0.16598
B         -0.21906       -4.77174       -0.53496
B         -3.07667       -3.26301       -0.40705
B         -3.10377       -1.64192        0.16037
B         -4.56434       -0.82976       -0.33482
B         -0.28474        1.73091        0.82747
B         -1.66817        2.42550        0.20265
B         -3.12430        1.61896        0.16289
B         -4.57453        0.78925       -0.33357
B         -4.41692        2.34811       -0.57770
B         -3.11760        3.24114       -0.40202
B         -1.69592        4.10518       -0.38778
B         -0.29586        3.33573        0.29932
B         -0.27921        4.78591       -0.52756
B          2.56718        3.37250       -0.01003
B          1.15047        4.18591       -0.25108
B          2.59544        1.73435        0.36848
B          3.98425        2.56941       -0.16206
B          4.06440        0.87782        0.29305
B          1.16026        2.54949        0.53269
B          1.19216       -2.51902        0.52877
B         -3.19648       -0.11231        0.55824
B          1.14701        0.82475        0.67439
B         -4.38712       -2.38613       -0.58136
B          5.33501       -1.68886       -0.67026
B          5.32202       -0.05792       -0.43507
B          5.31322        1.77340       -0.66758
B          6.48413        0.82642       -1.27129
B          6.49390       -0.72628       -1.27249
B         -1.72779        0.81981        0.76178
B          0.68059       -0.43380        0.35756
B         -0.26302       -1.71915        0.82481
B         -5.90031       -1.68444       -0.79402
B         -6.10618        0.02759       -0.85757
B         -5.91930        1.75878       -0.86195
B          0.00680        0.09292        3.03635
