45
isomer_3287.log	Energy: -113309.4680533
B          2.56565        1.61279       -0.66544
B          2.51786        3.29291        0.01322
B          1.16291        4.00339        0.28132
B         -0.32099        3.35376       -0.33761
B          1.07642        0.92035       -1.02015
B         -1.75283        0.87169       -0.88576
B         -1.65677        4.03348        0.50048
B          3.99752        0.98034       -0.53732
B         -1.74448        2.47671       -0.31971
B          3.85941        2.51859        0.00673
B         -0.24272        4.56896        0.67841
B         -3.08940        3.25922        0.36609
B         -3.20752        1.75891       -0.24895
B         -4.57526        0.82613        0.13532
B         -0.34008       -1.49096       -0.84996
B         -1.80088       -2.37074       -0.48235
B         -3.25189       -1.64606       -0.43086
B         -4.70627       -0.77966       -0.24591
B         -4.52365       -2.40634        0.41226
B         -3.11504       -3.20693        0.11704
B         -1.67914       -3.93171        0.32398
B         -0.27746       -3.14635       -0.40200
B         -0.28508       -4.27885        0.73867
B          2.63375       -3.28538       -0.28517
B          1.14999       -3.59921        0.47637
B          2.51969       -1.49199       -0.69017
B          3.76925       -2.34120        0.34361
B          3.90706       -0.69590       -0.33351
B          1.25565       -2.53506       -1.05198
B          1.16020        2.52772       -0.62288
B         -3.34330        0.08824       -0.74672
B          1.08940       -0.65756       -0.95098
B         -4.49503        2.48215        0.63636
B          5.25232        1.80089        0.40264
B          5.26521        0.09056        0.03341
B          5.05561       -1.41788        0.72719
B          6.12237       -0.44163        1.31795
B          6.29031        1.00966        1.09214
B         -1.80877       -0.71030       -0.81499
B          2.22337       -2.21388        0.97039
B         -0.35547        1.74124       -0.99937
B         -5.68377        1.58303        1.00909
B         -5.86779        0.05346        0.94370
B         -5.58721       -1.47486        0.92526
B          0.83684       -1.73174        0.47015
