45
isomer_3288.log	Energy: -112214.1785589
B         -2.57212        1.74312        0.39073
B         -2.54999        3.37946        0.00405
B         -1.13623        4.19764       -0.23818
B          0.31253        3.35636        0.31947
B         -1.12050        0.84122        0.70421
B          1.75411        0.84888        0.79754
B          1.71076        4.12827       -0.36861
B         -4.03728        0.88001        0.31659
B          1.68887        2.45148        0.23022
B         -3.96333        2.56962       -0.14686
B          0.29148        4.80229       -0.51473
B          3.13610        3.27020       -0.37556
B          3.14847        1.65092        0.19752
B          4.60323        0.82487       -0.29177
B          0.29995       -1.69591        0.87033
B          1.67883       -2.40420        0.25084
B          3.14173       -1.60999        0.21137
B          4.59988       -0.79415       -0.28490
B          4.42975       -2.35248       -0.52396
B          3.12265       -3.23401       -0.34794
B          1.69377       -4.08610       -0.33373
B          0.29875       -3.30259        0.34775
B          0.27171       -4.75545       -0.47415
B         -2.56384       -3.31652        0.03248
B         -1.15349       -4.14257       -0.20276
B         -2.57919       -1.67688        0.40525
B         -3.97382       -2.50215       -0.12533
B         -4.04077       -0.80838        0.32376
B         -1.15122       -2.50341        0.57532
B         -1.14074        2.56515        0.55380
B          3.22755        0.12198        0.60088
B         -1.12385       -0.77836        0.71108
B          4.43954        2.38180       -0.54406
B         -5.28787        1.76546       -0.65111
B         -5.28901        0.13530       -0.41026
B         -5.29504       -1.69683       -0.63641
B         -6.45673       -0.74220       -1.24586
B         -6.45352        0.81051       -1.25246
B          1.75071       -0.79713        0.80453
B         -1.33996       -1.59969        0.02323
B          0.30709        1.75418        0.85568
B          5.94725        1.66675       -0.75109
B          6.13894       -0.04715       -0.80829
B          5.93760       -1.77672       -0.80708
B         -0.70274        0.47739        1.80844
