45
isomer_0329.log	Energy: -112312.3004833
B          2.63343        1.74177       -0.45194
B          2.59130        3.38700       -0.06416
B          1.16873        4.20417        0.16425
B         -0.27649        3.37921       -0.38335
B          1.22187        0.85325       -0.76821
B         -1.75726        0.85351       -0.85077
B         -1.67584        4.14434        0.29696
B          4.06939        0.87785       -0.36694
B         -1.67599        2.47508       -0.28886
B          3.98383        2.56147        0.08854
B         -0.25324        4.78927        0.43514
B         -3.09650        3.29835        0.31861
B         -3.13478        1.67667       -0.24200
B         -4.58968        0.85171        0.26200
B         -0.34706       -1.68505       -0.95817
B         -1.71783       -2.41279       -0.26005
B         -3.14974       -1.61227       -0.22603
B         -4.58361       -0.77712        0.27135
B         -4.43646       -2.34792        0.53741
B         -3.10907       -3.24240        0.34997
B         -1.67319       -4.11331        0.33949
B         -0.26482       -3.36394       -0.35426
B         -0.21879       -4.77018        0.45777
B          2.64876       -3.36830       -0.06346
B          1.24820       -4.20668        0.19309
B          2.66616       -1.69327       -0.44327
B          4.03789       -2.50235        0.09009
B          4.08778       -0.82882       -0.36232
B          1.26942       -2.56466       -0.60347
B          1.20248        2.58404       -0.61193
B         -3.23004        0.12295       -0.63449
B          1.20395       -0.74910       -0.74520
B         -4.43549        2.42679        0.51532
B          5.29295        1.76416        0.60204
B          5.30369        0.12502        0.36862
B          5.32055       -1.67885        0.59892
B          6.44604       -0.71923        1.20109
B          6.44586        0.81304        1.20958
B         -1.77242       -0.79993       -0.85529
B          0.51206        0.73862        0.21413
B         -0.28302        1.77457       -0.90966
B         -5.88857        1.66803        0.72489
B         -6.07273        0.00188        0.79314
B         -5.88485       -1.68915        0.80536
B          0.17316       -1.98741       -0.39393
