45
isomer_3290.log	Energy: -112299.4754648
B          2.59993       -1.67429        0.39275
B          2.59465       -3.30803       -0.00534
B          1.18942       -4.13887       -0.25396
B         -0.26809       -3.31631        0.30880
B          1.13905       -0.78943        0.71176
B         -1.73537       -0.82705        0.80360
B         -1.65808       -4.09762       -0.38534
B          4.05624       -0.79579        0.32536
B         -1.65355       -2.42490        0.22516
B          3.99973       -2.48279       -0.14989
B         -0.23194       -4.75610       -0.53544
B         -3.09209       -3.25410       -0.38704
B         -3.12122       -1.63906        0.19730
B         -4.58411       -0.82449       -0.28696
B         -0.30727        1.73186        0.89483
B         -1.69303        2.43036        0.27959
B         -3.14773        1.62157        0.23386
B         -4.59728        0.79439       -0.26881
B         -4.44294        2.35600       -0.49693
B         -3.14497        3.24957       -0.31412
B         -1.72486        4.11605       -0.29325
B         -0.32223        3.34208        0.38345
B         -0.30964        4.80083       -0.42829
B          2.54021        3.38738        0.06973
B          1.12161        4.20063       -0.16046
B          2.57212        1.74543        0.43109
B          3.95849        2.58855       -0.09303
B          4.04252        0.89246        0.34429
B          1.13572        2.55615        0.60619
B          1.17693       -2.51198        0.54936
B         -3.21606       -0.11385        0.61125
B          1.12589        0.83000        0.72992
B         -4.40445       -2.37788       -0.55001
B          5.31622       -1.66168       -0.64786
B          5.30063       -0.03331       -0.39566
B          5.28807        1.80032       -0.60904
B          6.45970        0.86185       -1.22454
B          6.47232       -0.69073       -1.24195
B         -1.74875        0.81882        0.82205
B          0.84725       -1.44801        1.58683
B         -0.27922       -1.71794        0.85615
B         -5.91928       -1.67681       -0.75281
B         -6.12841        0.03540       -0.79817
B         -5.94472        1.76689       -0.78481
B          0.73856        0.63448       -0.29963
