45
isomer_3291.log	Energy: -113675.8852537
B          2.56330        1.73022       -0.53063
B          2.51400        3.30345        0.03692
B          1.15722        4.14886        0.10899
B         -0.26851        3.40266       -0.53864
B          1.17061        0.85133       -1.06963
B         -1.71751        0.84361       -0.78821
B         -1.64151        4.16960        0.25850
B          3.98422        0.84507       -0.22481
B         -1.72426        2.55138       -0.43063
B          3.86978        2.48473        0.27593
B         -0.21924        4.74763        0.35339
B         -3.00826        3.34072        0.27874
B         -3.12861        1.73330       -0.22055
B         -4.54669        0.89455        0.14494
B         -0.36952       -1.82520       -1.11743
B         -1.80235       -2.53265       -0.48903
B         -3.17315       -1.67979       -0.25957
B         -4.53231       -0.79738        0.23768
B         -4.40672       -2.44400        0.74966
B         -3.09200       -3.28008        0.26627
B         -1.74852       -4.14418        0.24573
B         -0.35143       -3.38494       -0.51516
B         -0.34220       -4.74596        0.35161
B          2.42707       -3.33498        0.03978
B          1.04700       -4.15730        0.12279
B          2.50792       -1.75944       -0.48779
B          3.80890       -2.53699        0.29340
B          3.95605       -0.91089       -0.21556
B          1.11893       -2.59021       -0.76497
B          1.18622        2.57761       -0.78970
B         -3.29360        0.01627       -0.60940
B          2.60982       -0.01655       -0.74653
B         -4.32585        2.49992        0.77090
B          5.10479        1.65127        0.84497
B          5.19536       -0.04496        0.52331
B          5.06003       -1.73908        0.86517
B          6.08371       -0.81441        1.61374
B          6.10480        0.70640        1.60574
B         -1.78652       -0.83022       -0.91138
B         -0.34257        0.00268       -1.09385
B         -0.31276        1.83055       -1.08762
B         -5.37263        1.56992        1.33830
B         -5.61963        0.03380        1.30510
B         -5.47316       -1.51812        1.30175
B          1.12977       -0.84821       -1.04218
