45
isomer_3292.log	Energy: -109663.9118321
B         -2.66286        1.71151        0.36909
B         -2.65988        3.34899       -0.01331
B         -1.25617        4.18181       -0.26397
B          0.20504        3.35351        0.28046
B         -1.20004        0.82324        0.66917
B          1.67498        0.85921        0.74085
B          1.59030        4.14108       -0.41605
B         -4.11991        0.83409        0.30366
B          1.58957        2.46257        0.17838
B         -4.06622        2.52556       -0.15575
B          0.16334        4.80134       -0.54964
B          3.02399        3.29722       -0.43608
B          3.05674        1.67664        0.13250
B          4.51587        0.86637       -0.36998
B          0.24671       -1.70007        0.81769
B          1.62781       -2.39300        0.18591
B          3.08243       -1.58420        0.13756
B          4.52862       -0.75262       -0.36747
B          4.37214       -2.31192       -0.60947
B          3.07521       -3.20685       -0.42599
B          1.65500       -4.07312       -0.40331
B          0.25749       -3.30531        0.29079
B          0.23862       -4.75620       -0.53481
B         -2.60714       -3.34684       -0.00293
B         -1.19048       -4.15822       -0.25103
B         -2.63592       -1.70842        0.37440
B         -4.02627       -2.54610       -0.14789
B         -4.10661       -0.85427        0.30628
B         -1.19858       -2.52117        0.53145
B         -1.23850        2.54728        0.52359
B          3.15402        0.14750        0.53111
B         -1.18728       -0.79630        0.67168
B          4.33485        2.42226       -0.61681
B         -5.38650        1.70962       -0.65218
B         -5.36966        0.07890       -0.41574
B         -5.35923       -1.75261       -0.64681
B         -6.53491       -0.80796       -1.24490
B         -6.54714        0.74472       -1.24731
B          1.68794       -0.78676        0.74340
B          0.59578        0.50389        2.92122
B          0.21953        1.74994        0.81234
B          5.84796        1.72277       -0.83714
B          6.05619        0.01102       -0.90042
B          5.87202       -1.72047       -0.90238
B          0.68113       -1.43865        0.88983
