45
isomer_3294.log	Energy: -113703.7097841
B          3.37893        0.85407       -1.08520
B          3.50392        2.25232       -0.30462
B          2.60629        3.52522       -0.44720
B          1.04699        3.12423       -0.98931
B          1.92109        0.13147       -1.60040
B         -1.05807        1.13723       -1.07863
B         -0.05533        4.29900       -0.21295
B          3.11437       -0.51471       -0.21381
B         -0.58282        2.74332       -0.73977
B          4.10074        0.86754        0.45028
B          1.45779        4.51148       -0.28586
B         -1.56837        3.84194        0.06066
B         -2.09934        2.32721       -0.28970
B         -3.48903        1.76116        0.49932
B         -0.43246       -1.69295       -1.61132
B         -1.67686       -2.14752       -0.48354
B         -2.94061       -1.06404       -0.05056
B         -4.06882        0.18011        0.28003
B         -4.10355       -1.49178        0.99312
B         -3.06142       -2.61969        0.44571
B         -1.87432       -3.73508        0.12379
B         -0.84529       -3.30266       -1.48575
B         -0.73520       -4.64542       -0.38901
B         -0.11765       -3.06523        0.19217
B          0.52477       -4.20431       -1.14479
B          1.50535       -1.37354       -0.53326
B          0.98932       -2.13666        1.06948
B          2.64919       -1.72294        0.66444
B          1.00323       -2.78497       -1.66377
B          2.20136        1.91889       -1.33666
B         -2.65824        0.69726       -0.52275
B          1.20069       -1.28159       -2.23229
B         -3.01260        3.38317        0.76895
B          4.68704        0.56630        1.80801
B          3.39208       -0.48538        1.52513
B          2.15348       -1.86925        2.18979
B          3.25561       -1.32017        3.00947
B          4.27416       -0.23037        2.96116
B         -1.36253       -0.44036       -0.49259
B          0.21243       -0.12956       -1.24691
B          0.53099        1.57094       -1.44287
B         -4.22738        2.78323        1.44347
B         -4.75680        1.26859        1.53106
B         -4.85283       -0.26316        1.58780
B         -0.13027       -1.22334        0.27967
