45
isomer_3295.log	Energy: -113675.8859245
B          2.50899        1.75988       -0.48879
B          2.42714        3.33466        0.04016
B          1.04717        4.15709        0.12315
B         -0.35128        3.38487       -0.51476
B          1.12964        0.84905       -1.04281
B         -1.78623        0.83033       -0.91144
B         -1.74839        4.14404        0.24615
B          3.95627        0.91052       -0.21536
B         -1.80215        2.53238       -0.48842
B          3.80945        2.53732        0.29282
B         -0.34197        4.74568        0.35203
B         -3.09209        3.28032        0.26605
B         -3.17389        1.68048       -0.26087
B         -4.53228        0.79772        0.23725
B         -0.31242       -1.83033       -1.08706
B         -1.72441       -2.55133       -0.43074
B         -3.12846       -1.73293       -0.22044
B         -4.54674       -0.89436        0.14602
B         -4.32597       -2.49997        0.77097
B         -3.00805       -3.34035        0.27919
B         -1.64149       -4.16983        0.25838
B         -0.26888       -3.40271       -0.53911
B         -0.21950       -4.74846        0.35216
B          2.51378       -3.30377        0.03658
B          1.15691       -4.14949        0.10810
B          2.56347       -1.73064       -0.53065
B          3.86983       -2.48496        0.27609
B          3.98416       -0.84523       -0.22423
B          1.18604       -2.57732       -0.78872
B          1.11901        2.58990       -0.76510
B         -3.29344       -0.01608       -0.60881
B          1.17042       -0.85021       -1.06929
B         -4.40706        2.44411        0.74937
B          5.06075        1.73904        0.86446
B          5.19574        0.04462        0.52290
B          5.10419       -1.65149        0.84610
B          6.10415       -0.70633        1.60659
B          6.08398        0.81444        1.61331
B         -1.71782       -0.84337       -0.78817
B          2.60999        0.01618       -0.74605
B         -0.36939        1.82522       -1.11713
B         -5.47330        1.51829        1.30152
B         -5.61975       -0.03375        1.30487
B         -5.37310       -1.57021        1.33862
B         -0.34300       -0.00305       -1.09490
