45
isomer_3297.log	Energy: -113373.2336385
B         -2.50618        1.67830        0.49640
B         -2.45777        3.28179       -0.01251
B         -1.06112        4.08070       -0.22599
B          0.37153        3.32325        0.29869
B         -1.07057        0.96792        1.35965
B          1.74250        0.81657        0.77916
B          1.74323        4.12202       -0.33934
B         -3.97446        0.88609        0.18693
B          1.79627        2.50245        0.49420
B         -3.83008        2.48437       -0.28732
B          0.34143        4.69101       -0.51314
B          3.11869        3.27636       -0.26200
B          3.20806        1.71263        0.18746
B          4.62889        0.82659       -0.12095
B          0.39505       -1.72536        0.95445
B          1.79001       -2.50512        0.48814
B          3.20213       -1.71740        0.17946
B          4.62511       -0.83397       -0.12756
B          4.45305       -2.47384       -0.68627
B          3.10908       -3.27927       -0.27438
B          1.73191       -4.12294       -0.34706
B          0.36410       -3.32569        0.30306
B          0.32885       -4.69055       -0.51389
B         -2.46586       -3.27845       -0.00207
B         -1.07159       -4.07927       -0.21996
B         -2.50932       -1.67350        0.50214
B         -3.83599       -2.47930       -0.27910
B         -3.97659       -0.87896        0.19013
B         -1.10795       -2.51629        0.53970
B         -1.10296        2.51772        0.53273
B          3.24071       -0.00336        0.52617
B         -1.07112       -0.96420        1.36217
B          4.46139        2.46872       -0.67461
B         -5.01923        1.70675       -0.94536
B         -5.01576        0.00313       -0.80200
B         -5.02429       -1.70111       -0.93771
B         -6.08660       -0.74998       -1.69225
B         -6.08387        0.75582       -1.69602
B          1.74140       -0.82105        0.78165
B         -2.71784        0.00332        1.02101
B          0.39740        1.72133        0.94717
B          5.57470        1.54066       -1.17283
B          5.76920       -0.00369       -1.15942
B          5.57036       -1.54757       -1.17970
B         -1.71589        0.00336        2.34097
