45
isomer_0330.log	Energy: -113473.5829115
B         -2.41941        1.74212        0.30643
B         -2.24420        3.39273       -0.31238
B         -0.83642        4.09412       -0.43247
B          0.56015        3.30226        0.34285
B         -1.04211        0.80872        0.48120
B          1.88765        0.76303        0.88446
B          2.03114        3.98346       -0.22520
B         -3.90272        1.16155        0.35205
B          1.96729        2.39956        0.55070
B         -3.67925        2.61204       -0.43693
B          0.65244        4.57548       -0.58820
B          3.39959        3.13871       -0.04775
B          3.39258        1.55974        0.50990
B          4.77649        0.54890        0.31642
B          0.18845       -1.74932        1.24282
B          1.53375       -2.48287        0.32136
B          3.00393       -1.80135        0.20481
B          4.40346       -0.99818       -0.24520
B          4.16238       -2.56063       -0.87830
B          2.66207       -3.24405       -0.61153
B          1.16811       -3.71818       -0.79678
B         -0.05965       -3.15328        0.34176
B         -0.38096       -3.98190       -1.00608
B         -2.82198       -3.09020        0.40303
B         -1.65980       -3.94155       -0.16575
B         -2.63634       -1.41107        0.53957
B         -4.14528       -2.11734        0.16786
B         -4.02925       -0.51081        0.47962
B         -1.38088       -2.31011       -0.55614
B         -0.96031        2.49343        0.11796
B          3.35080       -0.20223        0.82838
B         -1.07097       -0.85687        0.28939
B          4.68642        2.24979       -0.29796
B         -5.11473        2.01453       -0.65906
B         -5.30520        0.39665       -0.14227
B         -5.36640       -1.30336       -0.34666
B         -6.45914       -0.32075       -0.98659
B         -6.37620        1.16409       -1.07027
B          1.75409       -0.93625        1.07919
B         -1.38737       -2.43580        1.25236
B          0.44443        1.66016        0.76882
B          5.70285        1.21052       -0.81726
B          5.81104       -0.29261       -0.93659
B          5.43194       -1.81384       -1.16441
B          0.30754       -0.03906        0.94284
