45
isomer_3302.log	Energy: -113298.3747728
B         -1.95239        1.73541        0.31272
B         -1.67461        3.48773       -0.25848
B         -0.27538        4.15077       -0.23333
B          0.97993        3.40197        0.60886
B         -0.55517        0.88375        0.89775
B          1.82852        0.62257        0.97587
B          2.50476        3.88352       -0.05059
B         -3.49293        1.42377        0.14737
B          2.30233        2.32640        0.75182
B         -2.98222        2.84337       -0.64126
B          1.21104        4.60707       -0.38412
B          3.72401        2.83599        0.08548
B          3.49489        1.23784        0.49688
B          4.64290        0.09575        0.03902
B          0.08299       -1.83627        1.60065
B          0.87513       -2.25907       -0.03792
B          2.53091       -1.98500       -0.05399
B          4.12534       -1.42987       -0.35195
B          3.52587       -2.84700       -1.15735
B          2.06100       -3.34372       -0.76837
B          0.64504       -4.02887       -0.57886
B         -0.47959       -3.08108        0.27279
B         -0.72621       -4.58098       -0.37410
B         -3.26919       -2.94513        0.38212
B         -2.03797       -3.91283        0.14090
B         -2.92873       -1.24161        1.05356
B         -4.36517       -1.81401        0.20554
B         -4.00043       -0.18865        0.43097
B         -1.80799       -2.37302        0.81173
B         -0.54907        2.64258        0.64780
B          3.09218       -0.43939        0.58768
B         -1.86042        0.00352        0.63062
B          4.85457        1.79267       -0.41805
B         -4.32726        2.30818       -1.24858
B         -4.73442        0.75904       -0.70877
B         -5.25098       -0.84219       -0.65064
B         -5.91818        0.15827       -1.62726
B         -5.56230        1.61715       -1.82992
B          1.38256       -0.96449        0.93461
B         -1.31246       -1.01322        1.83828
B          0.78174        1.78532        1.17136
B          5.64354        0.69964       -1.07473
B          5.46141       -0.82385       -1.27315
B          4.87951       -2.22439       -1.50622
B         -0.56709       -1.12764        0.20326
