45
isomer_3303.log	Energy: -113589.4161218
B          2.46670       -1.77083        0.53670
B          2.41535       -3.40798       -0.05258
B          1.03773       -4.14361       -0.19445
B         -0.40053       -3.35717        0.52329
B          1.09360       -0.90889        1.02288
B         -1.75672       -0.83023        0.98301
B         -1.75244       -4.14149       -0.32800
B          3.83289       -0.92658        0.07599
B         -1.81379       -2.50800        0.52374
B          3.77923       -2.53340       -0.25518
B         -0.37047       -4.68940       -0.46470
B         -3.08391       -3.24999       -0.33149
B         -3.14838       -1.69499        0.24360
B         -4.50920       -0.75986       -0.23016
B         -0.30427        1.81270        0.93661
B         -1.69632        2.55675        0.47428
B         -3.09722        1.77002        0.25131
B         -4.57281        0.89907       -0.05452
B         -4.31335        2.48936       -0.68045
B         -2.98485        3.35331       -0.26950
B         -1.59812        4.19190       -0.31646
B         -0.26021        3.37225        0.49701
B         -0.19188        4.72056       -0.43796
B          2.58370        3.33713       -0.00609
B          1.21008        4.13700       -0.15509
B          2.58934        1.65531        0.60264
B          3.89669        2.46523       -0.20123
B          3.89453        0.81350        0.11362
B          1.21733        2.60113        0.53599
B          1.06813       -2.60138        0.65896
B         -3.25545        0.04672        0.52694
B          1.16495        0.87282        0.88195
B         -4.40776       -2.38059       -0.72409
B          5.09419       -1.73872       -0.82756
B          5.11560       -0.06087       -0.49090
B          5.16161        1.64177       -0.78095
B          6.14377        0.68234       -1.51175
B          6.12009       -0.81654       -1.53352
B         -1.72811        0.75989        0.78644
B          2.55488       -0.01782        0.91785
B         -0.40951       -1.82546        1.13092
B         -5.46874       -1.47322       -1.30787
B         -5.61317        0.06488       -1.29614
B         -5.32565        1.57974       -1.31666
B         -0.37753        0.01368        1.54354
