45
isomer_3304.log	Energy: -113665.4645792
B         -2.58636        1.73741        0.55270
B         -2.53275        3.35334        0.01581
B         -1.13699        4.11710       -0.06784
B          0.31542        3.40030        0.67368
B         -1.15348        0.86106        0.86829
B          1.79163        0.88511        0.82478
B          1.72700        4.11258       -0.19268
B         -3.99750        0.88335        0.20177
B          1.80353        2.56608        0.46409
B         -3.87328        2.51725       -0.26881
B          0.28203        4.62001       -0.36043
B          3.10586        3.32191       -0.23334
B          3.19435        1.69915        0.35327
B          4.53813        0.86687       -0.26299
B          0.34363       -1.74294        1.09513
B          1.80600       -2.56545        0.46632
B          3.19607       -1.69775        0.35478
B          4.53937       -0.86431       -0.26174
B          4.40595       -2.48998       -0.74401
B          3.10857       -3.32053       -0.23201
B          1.73077       -4.11221       -0.19029
B          0.31813       -3.40043        0.67510
B          0.28642       -4.61986       -0.35955
B         -2.52926       -3.35441        0.01388
B         -1.13327       -4.11734       -0.06905
B         -2.58366       -1.73855        0.54949
B         -3.87039       -2.51897       -0.27241
B         -3.99606       -0.88611        0.19973
B         -1.14062       -2.53316        0.55836
B         -1.14345        2.53322        0.56130
B          3.28508        0.00102        0.56795
B         -1.15150       -0.86023        0.86837
B          4.40427        2.49236       -0.74513
B         -5.12299        1.69628       -0.83543
B         -5.24677       -0.00153       -0.49698
B         -5.12052       -1.69883       -0.83843
B         -6.12701       -0.75932       -1.60105
B         -6.12774        0.75659       -1.60033
B          1.79270       -0.88484        0.82585
B         -2.63386       -0.00155        0.76867
B          0.34267        1.74251        1.09406
B          5.45346        1.56636       -1.35328
B          5.61899        0.00160       -1.34479
B          5.45429       -1.56336       -1.35259
B          0.36314        0.00021        1.12977
