45
isomer_3305.log	Energy: -113309.1926325
B         -2.50732       -1.47439       -0.65405
B         -2.63331       -3.26763       -0.33129
B         -1.15044       -3.60208        0.46466
B          0.27472       -3.15401       -0.39611
B         -1.07944       -0.64368       -0.95520
B          1.79415       -0.70942       -0.80033
B          1.67305       -3.93992        0.32294
B         -3.90008       -0.68394       -0.31300
B          1.79565       -2.37003       -0.47220
B         -3.77982       -2.34593        0.35172
B          0.27885       -4.30218        0.72335
B          3.10872       -3.20988        0.12253
B          3.24451       -1.64467       -0.41534
B          4.70536       -0.78951       -0.25852
B          0.36133        1.74951       -1.00660
B          1.75327        2.48187       -0.32369
B          3.20735        1.74968       -0.24521
B          4.57667        0.81498        0.14309
B          4.49731        2.47167        0.64362
B          3.10232        3.25825        0.35624
B          1.66840        4.03335        0.50109
B          0.33102        3.36089       -0.33730
B          0.25632        4.57296        0.68346
B         -2.50662        3.30036        0.02820
B         -1.15096        4.01471        0.28451
B         -2.55564        1.63345       -0.65698
B         -3.85203        2.52624        0.02095
B         -3.98196        0.98703       -0.51528
B         -1.15029        2.54439       -0.63055
B         -1.25090       -2.53599       -1.06770
B          3.34020        0.08181       -0.74389
B         -1.06893        0.93548       -1.02997
B          4.51752       -2.41410        0.41260
B         -5.06410       -1.41611        0.72230
B         -5.26682        0.09212        0.02207
B         -5.25232        1.80445        0.40022
B         -6.30656        1.01335        1.06589
B         -6.14297       -0.43873        1.29237
B          1.75694        0.87190       -0.88544
B         -2.23428       -2.26680        1.00484
B          0.32868       -1.50699       -0.84690
B          5.58371       -1.48095        0.91772
B          5.87318        0.04355        0.93988
B          5.69363        1.57481        0.99882
B         -0.88806       -1.71986        0.46249
