45
isomer_3306.log	Energy: -113675.8853924
B         -2.56360        1.72992        0.53089
B         -2.51462        3.30334       -0.03737
B         -1.15819        4.14885       -0.10860
B          0.26819        3.40330        0.53977
B         -1.17046        0.85111        1.06791
B          1.71734        0.84358        0.78549
B          1.64066        4.17040       -0.25800
B         -3.98438        0.84474        0.22474
B          1.72333        2.55156        0.42985
B         -3.87021        2.48441       -0.27576
B          0.21822        4.74798       -0.35282
B          3.00777        3.34186       -0.27806
B          3.12842        1.73424        0.22035
B          4.54674        0.89526       -0.14383
B          0.37016       -1.82495        1.11791
B          1.80276       -2.53242        0.48939
B          3.17388       -1.68000        0.26041
B          4.53149       -0.79642       -0.23944
B          4.40756       -2.44394       -0.74926
B          3.09294       -3.28003       -0.26578
B          1.74934       -4.14420       -0.24530
B          0.35199       -3.38424        0.51432
B          0.34315       -4.74567       -0.35163
B         -2.42649       -3.33526       -0.03942
B         -1.04633       -4.15717       -0.12289
B         -2.50818       -1.75976        0.48817
B         -3.80863       -2.53783       -0.29305
B         -3.95587       -0.91147        0.21556
B         -1.11854       -2.59010        0.76496
B         -1.18669        2.57766        0.78894
B          3.29375        0.01623        0.60964
B         -1.12887       -0.84869        1.04070
B          4.32514        2.50044       -0.77055
B         -5.10467        1.65046       -0.84531
B         -5.19538       -0.04565       -0.52283
B         -5.05981       -1.73984       -0.86495
B         -6.08422       -0.81547       -1.61269
B         -6.10525        0.70509       -1.60527
B          1.78802       -0.83022        0.91322
B         -2.60981       -0.01624        0.74648
B          0.31224        1.83067        1.08712
B          5.37090        1.56979       -1.33899
B          5.61920        0.03403       -1.30536
B          5.47411       -1.51804       -1.30113
B          0.34290        0.00269        1.09248
