45
isomer_3308.log	Energy: -113471.9498275
B          2.59684        1.61022       -0.72040
B          2.58413        3.28227        0.08316
B          1.24406        4.08413        0.28930
B         -0.23256        3.37068       -0.26084
B          1.20356        0.87363       -1.06050
B         -1.71518        0.91080       -0.80474
B         -1.59644        4.16330        0.47293
B          3.99451        0.87673       -0.42181
B         -1.68353        2.57372       -0.41283
B          3.87225        2.42859        0.08109
B         -0.17658        4.68435        0.63580
B         -2.99747        3.34814        0.39342
B         -3.11701        1.81747       -0.22006
B         -4.56628        0.91144       -0.03740
B         -0.26298       -1.60267       -0.55162
B         -1.73378       -2.45427       -0.45914
B         -3.12864       -1.66879       -0.46399
B         -4.38309       -0.72886        0.20588
B         -4.46807       -2.40788        0.42063
B         -3.07177       -3.25628        0.11008
B         -1.74593       -4.09837        0.19605
B         -0.21014       -3.29471       -0.50584
B         -0.40483       -4.50144        0.63878
B          2.38206       -3.10275        0.50724
B          1.01061       -3.83800        0.60870
B          2.51033       -1.72650       -0.56774
B          3.77568       -2.33376        0.42990
B          3.90783       -0.86683       -0.25946
B          1.28228       -2.76412       -1.01432
B          1.22379        2.47720       -0.38631
B         -3.21418        0.10119       -0.62597
B          1.20668       -0.74505       -0.65088
B         -4.37313        2.54393        0.66514
B          5.27722        1.64459        0.41042
B          5.29378       -0.00965        0.04922
B          5.16634       -1.58161        0.67116
B          6.30370       -0.67879        1.18718
B          6.35894        0.78939        1.05519
B         -1.71933       -0.74797       -1.06893
B          0.98752       -2.03542        0.56752
B         -0.27416        1.80559       -0.84174
B         -5.49936        1.57973        1.07385
B         -5.74819        0.06043        0.96521
B         -5.59827       -1.52163        0.87987
B         -0.26125        0.02786       -1.26315
