45
isomer_3309.log	Energy: -112134.0550638
B          2.49563        1.81279       -0.49222
B          2.44085        3.43517       -0.06937
B          1.05746        4.20412        0.20833
B         -0.38725        3.39486       -0.32290
B          1.03515        0.91566       -0.79540
B         -1.81888        0.90090       -0.84622
B         -1.76236        4.13186        0.40170
B          3.97017        1.04059       -0.45999
B         -1.75980        2.49855       -0.23391
B          3.81656        2.66795        0.01858
B         -0.34062        4.75707        0.51832
B         -3.16897        3.29416        0.41142
B         -3.20665        1.69558       -0.19801
B         -4.65272        0.84092        0.27167
B         -0.41252       -1.60134       -1.00221
B         -1.77205       -2.36711       -0.39523
B         -3.20467       -1.57974       -0.32070
B         -4.63307       -0.77915        0.20303
B         -4.49011       -2.36506        0.42102
B         -3.15266       -3.22747        0.19120
B         -1.75091       -4.05582        0.13679
B         -0.39465       -3.25041       -0.53207
B         -0.34654       -4.66265        0.24103
B          2.71646       -3.29381       -0.15485
B          1.06618       -4.09501       -0.00509
B          2.76125       -1.36172       -0.56240
B          4.12280       -2.26275       -0.05764
B          4.07508       -0.57736       -0.50143
B          1.01015       -2.43333       -0.76693
B          1.05526        2.61388       -0.60618
B         -3.29249        0.14998       -0.64859
B          1.05127       -0.60388       -0.81262
B         -4.51983        2.42837        0.59589
B          5.18448        1.94189        0.49353
B          5.25554        0.32769        0.22011
B          5.34860       -1.42015        0.40458
B          6.42349       -0.46778        1.00078
B          6.37461        1.03967        1.04678
B         -1.82424       -0.75195       -0.90338
B          2.02371       -2.65670        2.56531
B         -0.39224        1.80667       -0.89843
B         -5.92071        1.59509        0.75973
B         -6.08080       -0.01752        0.75253
B         -5.89673       -1.64801        0.70330
B          1.89677       -2.01469        0.02014
