45
isomer_3310.log	Energy: -113162.6245970
B          2.77040       -1.61539        0.53613
B          2.71559       -3.24027        0.18799
B          1.35052       -4.03866       -0.00810
B         -0.12270       -3.41651        0.52202
B          1.86692       -0.32509        0.73220
B         -1.64000       -0.80143        0.87585
B         -1.40982       -4.13495       -0.41471
B          4.03066       -0.70314        0.25276
B         -1.58258       -2.57054        0.31279
B          4.07658       -2.36585       -0.10353
B          0.00999       -4.67384       -0.43329
B         -2.80806       -3.30739       -0.49579
B         -2.96156       -1.77649        0.07778
B         -4.32848       -0.90827       -0.44522
B         -0.41330        1.79735        1.15484
B         -1.76074        2.49238        0.49407
B         -3.12867        1.63634        0.23735
B         -4.39198        0.72477       -0.39348
B         -4.44284        2.39804       -0.68859
B         -3.09054        3.20665       -0.25756
B         -1.77312        4.13305       -0.21755
B         -0.38263        3.42870        0.58950
B         -0.37908        4.71756       -0.36471
B          2.40408        3.33385       -0.01025
B          1.02136        4.14915       -0.09764
B          2.42015        1.59981        0.50165
B          3.64197        2.53071       -0.36618
B          3.91177        0.97552        0.22922
B          1.10520        2.59084        0.72462
B          1.36883       -2.44693        0.73686
B         -3.17446       -0.08945        0.46079
B          0.96872        0.95767        0.92713
B         -4.22560       -2.53904       -0.89656
B          5.20585       -1.51939       -0.83706
B          5.06428        0.16610       -0.67371
B          4.91846        1.82362       -0.97100
B          6.02647        0.97488       -1.67977
B          6.13975       -0.54820       -1.63040
B         -1.67529        0.78717        1.04596
B          0.30731       -0.53665        0.79208
B         -0.24466       -1.95024        1.18701
B         -5.41273       -1.68020       -1.31106
B         -5.66782       -0.11738       -1.28169
B         -5.53994        1.45048       -1.21218
B         -0.76827       -0.56936        2.21143
