45
isomer_3311.log	Energy: -113412.2365322
B          2.45269       -1.33624        0.27189
B          2.60530       -3.24788       -0.02689
B          1.30591       -4.09091       -0.04106
B         -0.16317       -3.21724        0.08774
B          1.11459       -0.53436       -0.27797
B         -1.71197       -0.76144        0.58133
B         -1.54367       -4.14623       -0.23680
B          3.97697       -0.77840        0.19155
B         -1.66615       -2.41849        0.05218
B          3.86233       -2.36240       -0.10063
B         -0.13358       -4.76723       -0.17101
B         -2.99338       -3.31617       -0.32150
B         -3.14516       -1.75637        0.22608
B         -4.62104       -0.92505        0.12464
B         -0.31760        1.78687        1.04594
B         -1.76952        2.48948        0.51134
B         -3.17624        1.68366        0.34496
B         -4.52597        0.74013       -0.16242
B         -4.48017        2.40386       -0.56797
B         -3.09373        3.20989       -0.22778
B         -1.72511        4.09534       -0.28057
B         -0.32853        3.34411        0.44692
B         -0.34704        4.67892       -0.46343
B          2.45270        3.28463       -0.20779
B          1.07284        4.08852       -0.28986
B          2.49547        1.61555        0.24071
B          3.84187        2.47619       -0.30144
B          3.95227        0.92653        0.13474
B          1.17339        2.58141        0.57310
B          1.28415       -2.48136        0.69470
B         -3.27767       -0.03827        0.67025
B          1.15383        0.80927        0.70460
B         -4.40757       -2.52203       -0.61416
B          5.28018       -1.57127       -0.46756
B          5.35696        0.08083       -0.09106
B          5.26393        1.69809       -0.63696
B          6.41443        0.78956       -1.12309
B          6.43024       -0.69911       -1.04896
B         -1.78561        0.80489        1.03424
B          1.08397       -0.97491        1.42251
B         -0.19096       -1.50936        0.14726
B         -5.48398       -1.56525       -1.06992
B         -5.78934       -0.04535       -0.99683
B         -5.65370        1.50785       -0.96860
B         -0.24318       -0.03027        1.18762
