45
isomer_3312.log	Energy: -113343.5271118
B          2.39056       -1.72122        0.42636
B          2.18989       -3.18310       -0.40448
B          0.90470       -4.00805       -0.50217
B         -0.40237       -3.87036        0.63311
B          1.22384       -0.81274        1.08068
B         -1.65044       -0.68773        0.72127
B         -1.80081       -4.01120       -0.40385
B          3.70591       -0.85225       -0.11768
B         -1.66761       -2.49074        0.58394
B          3.54988       -2.39703       -0.62607
B         -0.45131       -4.54726       -0.83408
B         -3.04941       -3.12882       -0.20517
B         -3.04238       -1.54699        0.24806
B         -4.44811       -0.62500       -0.12474
B         -0.18842        1.87942        1.13588
B         -1.56454        2.66472        0.39816
B         -2.97663        1.88719        0.16873
B         -4.36206        1.04874       -0.29956
B         -4.17251        2.68918       -0.83356
B         -2.81847        3.47888       -0.35175
B         -1.41214        4.24367       -0.33158
B         -0.06443        3.42349        0.47208
B          0.03640        4.76148       -0.40085
B          2.72388        3.28205        0.12074
B          1.39082        4.11588       -0.07553
B          2.66363        1.60962        0.62347
B          3.98386        2.40529       -0.08496
B          3.96095        0.78740        0.16813
B          1.34404        2.55053        0.84812
B          1.04635       -2.62070        0.74585
B         -3.17772        0.20747        0.58215
B          1.30960        0.83284        1.10067
B         -4.31005       -2.22203       -0.72619
B          4.91999       -1.69301       -1.03625
B          5.20452       -0.15279       -0.33138
B          5.30165        1.51768       -0.60404
B          6.29441        0.63095       -1.32802
B          6.06006       -0.81293       -1.58500
B         -1.63431        1.00668        0.85033
B         -0.32683       -2.97438        1.82896
B         -0.36509       -1.54572        1.46259
B         -5.31989       -1.27383       -1.31533
B         -5.50887        0.26321       -1.33078
B         -5.28287        1.79963       -1.36804
B         -0.20769        0.09187        1.02176
