45
isomer_3313.log	Energy: -112161.9767929
B          2.65668       -1.65666        0.33964
B          2.62656       -3.30778       -0.04402
B          1.23561       -4.13044       -0.27598
B         -0.22312       -3.32402        0.28958
B          1.23690       -0.75116        0.64747
B         -1.72470       -0.74668        0.77128
B         -1.59853       -4.10211       -0.41833
B          4.08071       -0.78561        0.26613
B         -1.63411       -2.42736        0.17881
B          4.02310       -2.46753       -0.19970
B         -0.18080       -4.73759       -0.55046
B         -3.04378       -3.25376       -0.43827
B         -3.09988       -1.62849        0.14013
B         -4.55604       -0.80342       -0.35229
B         -0.26673        1.75423        0.85127
B         -1.66649        2.45691        0.22616
B         -3.12327        1.64862        0.17192
B         -4.57241        0.81899       -0.33883
B         -4.42147        2.38622       -0.57730
B         -3.10249        3.26628       -0.38181
B         -1.67583        4.12829       -0.35681
B         -0.28071        3.36306        0.32375
B         -0.26552        4.78657       -0.49075
B          2.57751        3.38929       -0.00392
B          1.16227        4.19808       -0.22872
B          2.61663        1.74927        0.36740
B          3.98605        2.57558       -0.17097
B          4.06841        0.90375        0.27526
B          1.18962        2.57160        0.54548
B          1.24552       -2.49900        0.52184
B         -3.19881       -0.07681        0.55311
B          1.18499        0.84950        0.67621
B         -4.38724       -2.37592       -0.62186
B          5.32248       -1.65569       -0.70744
B          5.30793       -0.02123       -0.46470
B          5.29325        1.78688       -0.68607
B          6.44252        0.84926       -1.29701
B          6.46500       -0.68443       -1.31103
B         -1.73175        0.85995        0.77892
B          0.37600       -0.22898        3.10559
B         -0.22224       -1.78387        0.86352
B         -5.85674       -1.63674       -0.82373
B         -6.06013        0.05587       -0.87219
B         -5.88631        1.73886       -0.85999
B         -0.31865       -1.05177        0.57869
