45
isomer_3315.log	Energy: -112408.6981691
B          2.60984       -1.57641        0.34687
B          2.62820       -3.20648       -0.06559
B          1.23492       -4.05733       -0.31383
B         -0.23224       -3.26299        0.26417
B          1.13696       -0.71769        0.68171
B         -1.73595       -0.80177        0.78898
B         -1.61357       -4.06018       -0.42920
B          4.05166       -0.67434        0.27925
B         -1.63209       -2.39300        0.19601
B          4.01919       -2.35780       -0.21056
B         -0.17805       -4.69458       -0.59293
B         -3.06075       -3.23955       -0.41557
B         -3.11216       -1.63035        0.18316
B         -4.59047       -0.83492       -0.28586
B         -0.34805        1.77861        0.89497
B         -1.74814        2.46036        0.29354
B         -3.19009        1.62900        0.24865
B         -4.62916        0.78333       -0.25334
B         -4.50086        2.34913       -0.46850
B         -3.21620        3.26156       -0.28493
B         -1.80989        4.15028       -0.26421
B         -0.39139        3.39280        0.39792
B         -0.40647        4.85860       -0.40096
B          2.46816        3.48630        0.06890
B          1.03559        4.27890       -0.14631
B          2.52810        1.84197        0.41556
B          3.89798        2.71155       -0.10869
B          4.01131        1.01325        0.31316
B          1.08006        2.62821        0.60570
B          1.20120       -2.43793        0.50389
B         -3.22881       -0.11052        0.61108
B          1.09825        0.90111        0.71424
B         -4.38771       -2.38290       -0.56359
B          5.31969       -1.51156       -0.70848
B          5.27974        0.11409       -0.44182
B          5.23694        1.94909       -0.63893
B          6.41981        1.03476       -1.26912
B          6.45692       -0.51721       -1.30031
B         -1.77529        0.84346        0.82204
B          1.89002       -2.19951        2.10766
B         -0.26560       -1.66983        0.82567
B         -5.91457       -1.70424       -0.75188
B         -6.15104        0.00477       -0.78096
B         -5.99472        1.73877       -0.75333
B          0.50871       -1.16878       -0.11425
