45
isomer_3316.log	Energy: -113401.5870332
B         -2.60858       -1.55929       -0.52812
B         -2.74625       -3.58507       -0.18227
B         -1.24533       -4.00282        0.15335
B          0.28594       -3.30548       -0.45910
B         -1.05474       -0.67527       -0.90939
B          1.74514       -0.78665       -0.89223
B          1.61159       -4.06768        0.28373
B         -4.00072       -0.68711       -0.43615
B          1.72923       -2.45995       -0.43233
B         -3.84038       -2.43969        0.25152
B          0.20758       -4.58742        0.47286
B          3.04757       -3.26174        0.22757
B          3.18787       -1.73571       -0.31359
B          4.59973       -0.87382        0.09568
B          0.45088        1.73338       -0.91278
B          1.85804        2.48652       -0.33835
B          3.27521        1.68168       -0.25191
B          4.65100        0.77116        0.10093
B          4.61319        2.39902        0.61747
B          3.21009        3.20242        0.34667
B          1.85178        4.08899        0.40061
B          0.46933        3.40827       -0.38627
B          0.45768        4.71753        0.51789
B         -2.39980        3.45822       -0.06169
B         -0.95667        4.19793        0.15507
B         -2.49355        1.89342       -0.57012
B         -3.82743        2.66168        0.15295
B         -3.95362        1.03351       -0.43935
B         -1.04243        2.65977       -0.61221
B         -1.13612       -2.39131       -0.62473
B          3.29134       -0.00868       -0.59480
B         -1.03238        0.94106       -0.86662
B          4.47503       -2.53021        0.50670
B         -5.08683       -1.49611        0.72009
B         -5.15495        0.16334        0.34733
B         -5.09464        1.91065        0.64430
B         -6.11626        0.98439        1.36298
B         -6.11270       -0.53075        1.42342
B          1.79493        0.83450       -0.86105
B         -2.09533       -2.49156        0.74403
B          0.37444       -1.61099       -0.98380
B          5.66206       -1.65202        0.96062
B          5.90243       -0.10770        0.96368
B          5.74021        1.45906        1.02857
B         -2.49359        0.16053       -0.82113
