45
isomer_3318.log	Energy: -111991.4048718
B         -2.61855        1.71431        0.38165
B         -2.59562        3.35091       -0.00773
B         -1.18214        4.17704       -0.25059
B          0.27159        3.35113        0.30662
B         -1.18074        0.82287        0.69256
B          1.73870        0.84443        0.78901
B          1.66600        4.12423       -0.38380
B         -4.07129        0.84005        0.30856
B          1.66242        2.45249        0.21725
B         -4.00567        2.52656       -0.15727
B          0.24195        4.78265       -0.52820
B          3.09755        3.27488       -0.39142
B          3.12391        1.65695        0.18414
B          4.58216        0.83354       -0.30374
B          0.31114       -1.71660        0.86541
B          1.68625       -2.41956        0.24493
B          3.13871       -1.61634        0.20388
B          4.58867       -0.79079       -0.29367
B          4.43184       -2.35435       -0.53436
B          3.12374       -3.24215       -0.35415
B          1.69962       -4.10012       -0.33810
B          0.29571       -3.33134        0.34231
B          0.27674       -4.77216       -0.47379
B         -2.57783       -3.36044        0.02835
B         -1.16087       -4.17905       -0.20486
B         -2.61426       -1.71089        0.39722
B         -3.99425       -2.54407       -0.12991
B         -4.06771       -0.85464        0.31754
B         -1.17800       -2.54475        0.56603
B         -1.18981        2.55079        0.54488
B          3.21443        0.12050        0.59100
B         -1.17822       -0.77254        0.69952
B          4.41431        2.39473       -0.56289
B         -5.32087        1.71452       -0.66080
B         -5.31491        0.08164       -0.41714
B         -5.31238       -1.74445       -0.63943
B         -6.47068       -0.79639       -1.24833
B         -6.47894        0.74920       -1.25998
B          1.74707       -0.80902        0.79833
B         -0.54849       -1.46492        0.53494
B          0.27843        1.75337        0.84715
B          5.91096        1.67376       -0.76546
B          6.10921       -0.03230       -0.81741
B          5.92133       -1.74786       -0.81368
B         -0.47125        1.11419        1.67545
