45
isomer_3319.log	Energy: -112688.4864229
B          2.62472       -1.64176        0.37342
B          2.62210       -3.27339       -0.03327
B          1.21824       -4.10503       -0.28691
B         -0.24077       -3.28767        0.27951
B          1.16236       -0.76081        0.69643
B         -1.71204       -0.80327        0.78675
B         -1.62925       -4.06741       -0.41937
B          4.07973       -0.76072        0.31133
B         -1.62754       -2.39793        0.19994
B          4.02599       -2.44528       -0.17283
B         -0.20205       -4.72293       -0.57229
B         -3.06455       -3.22606       -0.41728
B         -3.09639       -1.61417        0.17555
B         -4.56030       -0.79928       -0.30508
B         -0.28786        1.75728        0.89212
B         -1.67440        2.45691        0.27994
B         -3.12786        1.64618        0.22928
B         -4.57592        0.81947       -0.27840
B         -4.42385        2.38249       -0.49822
B         -3.12733        3.27704       -0.31011
B         -1.70854        4.14555       -0.28402
B         -0.30504        3.37015        0.38923
B         -0.29430        4.83317       -0.41480
B          2.55747        3.42144        0.07706
B          1.13774        4.23374       -0.14949
B          2.59171        1.77766        0.42977
B          3.97703        2.62563       -0.08926
B          4.06344        0.92739        0.33915
B          1.15400        2.58527        0.60849
B          1.20293       -2.48242        0.52497
B         -3.19373       -0.09131        0.59749
B          1.14673        0.85848        0.72312
B         -4.37816       -2.35098       -0.57623
B          5.34146       -1.61956       -0.66586
B          5.32329        0.00743       -0.40509
B          5.30804        1.84214       -0.60881
B          6.48137        0.90871       -1.22872
B          6.49636       -0.64373       -1.25430
B         -1.72793        0.84245        0.81387
B          0.52953       -2.18923        1.71206
B         -0.25456       -1.69221        0.83528
B         -5.89396       -1.65115       -0.77602
B         -6.10566        0.06096       -0.81245
B         -5.92460        1.79262       -0.78989
B          0.09234        0.05415        0.07393
