45
isomer_0332.log	Energy: -113596.8710780
B          2.97302        1.14695       -0.47503
B          2.89913        2.67740        0.63339
B          1.50703        3.35076        0.83807
B          0.10522        2.53297        0.24173
B          1.59916        0.53754       -1.06480
B         -1.56022        0.09317       -0.64884
B         -1.28826        3.45492        0.52794
B          4.54652        1.03974       -0.85088
B         -1.44932        1.87308       -0.20121
B          4.25164        2.14154        0.27690
B          0.08992        3.94794        0.95267
B         -2.73692        2.87197        0.05535
B         -2.89532        1.33641       -0.62821
B         -4.50174        1.10097       -1.13527
B         -0.90534       -1.71794       -1.32579
B         -1.97473       -1.37522        0.19724
B         -3.64171       -1.52568       -0.38205
B         -4.98051       -0.29721       -0.23060
B         -4.70218       -1.78196        0.85007
B         -3.21493       -2.14257        1.14774
B         -1.69143       -2.46716        1.51087
B         -0.61457       -2.47806        0.18351
B         -0.16174       -2.81837        1.73271
B          2.07336       -2.79631       -0.22783
B          0.99304       -3.26025        0.83790
B          2.12570       -1.04327       -0.56451
B          3.50352       -2.10486       -0.48974
B          3.83231       -0.53003       -0.74733
B          0.63253       -2.32748       -0.95382
B          1.57600        1.61564        0.52978
B         -3.52885       -0.09697       -1.40165
B          0.33703       -0.58433       -0.92261
B         -4.22677        2.36837       -0.05512
B          5.75332        1.34336        0.25109
B          5.52337       -0.18460       -0.43983
B          4.98381       -1.76007       -0.13045
B          6.29497       -1.24671        0.52336
B          6.67110        0.18630        0.68761
B         -2.39283       -1.22187       -1.54302
B          0.93682       -1.58475        0.77286
B          0.01856        0.96710       -0.39211
B         -5.50064        1.49466        0.12209
B         -6.37264        0.30183        0.49799
B         -6.05580       -1.07314        0.78821
B          1.16939        0.03617        0.65165
