45
isomer_3322.log	Energy: -112442.8147552
B          2.62429       -1.64334        0.32728
B          2.61908       -3.27154       -0.09289
B          1.21389       -4.09888       -0.35318
B         -0.24376       -3.28397        0.22023
B          1.16334       -0.76283        0.65781
B         -1.71111       -0.80158        0.74824
B         -1.63356       -4.05575       -0.48486
B          4.08065       -0.76407        0.27225
B         -1.62916       -2.39146        0.14824
B          4.02422       -2.44447       -0.22582
B         -0.20740       -4.71219       -0.64343
B         -3.06755       -3.21222       -0.47557
B         -3.09680       -1.60525        0.13058
B         -4.55952       -0.78414       -0.34306
B         -0.28295        1.75581        0.87456
B         -1.66849        2.46263        0.26842
B         -3.12322        1.65459        0.21128
B         -4.57263        0.83435       -0.30299
B         -4.41817        2.39890       -0.50989
B         -3.12023        3.28986       -0.31459
B         -1.70010        4.15592       -0.28155
B         -0.29770        3.37280        0.38504
B         -0.28481        4.84241       -0.40687
B          2.56484        3.42224        0.07284
B          1.14634        4.23859       -0.14676
B          2.59658        1.77554        0.41193
B          3.98314        2.62563       -0.10029
B          4.06698        0.92377        0.31404
B          1.16016        2.58387        0.59755
B          1.20121       -2.48302        0.47211
B         -3.19172       -0.08578        0.56512
B          1.15023        0.85621        0.69790
B         -4.37982       -2.33383       -0.62706
B          5.34090       -1.61674       -0.71222
B          5.32529        0.00806       -0.43799
B          5.31285        1.84442       -0.62652
B          6.48464        0.91433       -1.25432
B          6.49722       -0.63787       -1.29275
B         -1.72444        0.84389        0.78898
B          0.33026       -2.18982        2.56504
B         -0.25500       -1.69315        0.78917
B         -5.89457       -1.63002       -0.82082
B         -6.10363        0.08266       -0.84305
B         -5.91988        1.81379       -0.80618
B          0.20012       -0.19835        0.58406
