45
isomer_3324.log	Energy: -110882.3713468
B         -2.58160       -1.60997       -0.40345
B         -2.58535       -3.24592       -0.01452
B         -1.18466       -4.08637        0.22739
B          0.27684       -3.26924       -0.33291
B         -1.11601       -0.73192       -0.71966
B          1.75801       -0.78589       -0.81592
B          1.66321       -4.06257        0.35481
B         -4.03263       -0.72334       -0.32900
B          1.66763       -2.38645       -0.24632
B         -3.98534       -2.41328        0.13671
B          0.23344       -4.71350        0.50331
B          3.10216       -3.22749        0.35911
B          3.13993       -1.60940       -0.21622
B          4.60828       -0.80615        0.27044
B          0.34483        1.78182       -0.89074
B          1.73555        2.46872       -0.27364
B          3.18554        1.65118       -0.23457
B          4.63093        0.81270        0.26133
B          4.48609        2.37389        0.49841
B          3.19314        3.27606        0.32251
B          1.77811        4.15096        0.30858
B          0.36998        3.38904       -0.37038
B          0.36713        4.84326        0.44953
B         -2.49169        3.44937       -0.05220
B         -1.06800        4.25298        0.18045
B         -2.53376        1.80969       -0.42269
B         -3.91440        2.65797        0.10817
B         -4.00902        0.96488       -0.33850
B         -1.09288        2.61293       -0.59537
B         -1.16378       -2.45510       -0.56684
B          3.24314       -0.08248       -0.62177
B         -1.09336        0.88748       -0.72877
B          4.41987       -2.35991        0.52506
B         -5.29627       -1.58726        0.64120
B         -5.27148        0.04238        0.39809
B         -5.24784        1.87468        0.62172
B         -6.42408        0.93966        1.23368
B         -6.44580       -0.61288        1.24242
B          1.78103        0.85995       -0.82519
B         -2.24379       -0.29082       -0.74603
B          0.29657       -1.66791       -0.87132
B          5.93908       -1.66889        0.72955
B          6.15833        0.04179        0.78418
B          5.98480        1.77437        0.78078
B         -0.58186       -2.51906       -0.32143
