45
isomer_3325.log	Energy: -112231.2608576
B          2.46978        1.89019       -0.49088
B          2.40951        3.51417       -0.05885
B          0.97817        4.28619        0.22759
B         -0.45604        3.42079       -0.33074
B          1.03830        0.95748       -0.80680
B         -1.83660        0.88846       -0.85568
B         -1.86342        4.13488        0.39981
B          3.95882        1.06609       -0.46314
B         -1.80572        2.47622       -0.24537
B          3.84654        2.73978        0.04789
B         -0.46078        4.84353        0.54266
B         -3.26467        3.23798        0.40497
B         -3.24235        1.63515       -0.21236
B         -4.66608        0.75633        0.27623
B         -0.31531       -1.61237       -1.02108
B         -1.66429       -2.37497       -0.40026
B         -3.14737       -1.62275       -0.31638
B         -4.61893       -0.86120        0.22459
B         -4.40276       -2.42017        0.41787
B         -3.07523       -3.26024        0.19749
B         -1.62418       -4.07192        0.13778
B         -0.26210       -3.23203       -0.54316
B         -0.18241       -4.70540        0.23777
B          2.60453       -3.17563       -0.27244
B          1.22107       -4.04632       -0.03845
B          2.56939       -1.52666       -0.59997
B          3.99426       -2.32731       -0.11390
B          4.00799       -0.62075       -0.51700
B          1.16180       -2.38729       -0.77084
B          1.01418        2.67659       -0.60915
B         -3.28642        0.11615       -0.65654
B          1.08546       -0.66060       -0.85846
B         -4.54064        2.30974        0.56889
B          5.20037        1.95902        0.50931
B          5.24185        0.33666        0.22352
B          5.30121       -1.50008        0.39886
B          6.44626       -0.53073        1.01652
B          6.40104        1.02055        1.06605
B         -1.78866       -0.75603       -0.90819
B          2.40893       -2.98701        2.26590
B         -0.41579        1.83454       -0.91102
B         -6.02486        1.54806        0.77924
B         -6.16904       -0.17140        0.79201
B         -5.92091       -1.89409        0.73993
B          1.67507       -0.90360        0.52577
