45
isomer_3326.log	Energy: -113439.2251924
B          2.46035       -1.73451        0.19052
B          2.31063       -3.30524       -0.42230
B          0.89551       -4.11074       -0.38325
B         -0.43722       -3.32652        0.44609
B          1.18520       -0.76470        0.60040
B         -1.80717       -0.75953        1.00156
B         -1.89375       -4.07029       -0.18538
B          3.88916       -1.00642        0.05989
B         -1.86997       -2.43630        0.56997
B          3.73068       -2.53477       -0.52719
B         -0.53642       -4.67554       -0.44455
B         -3.23759       -3.17410       -0.10913
B         -3.29594       -1.63583        0.45913
B         -4.66449       -0.66546        0.10221
B         -0.14237        1.69539        0.87683
B         -1.60809        2.54724        0.45078
B         -3.02688        1.79749        0.21499
B         -4.37791        0.92514       -0.31807
B         -4.27519        2.56284       -0.74078
B         -2.80947        3.29116       -0.42711
B         -1.38547        4.08842       -0.43740
B         -0.05775        3.21792        0.14359
B          0.04708        4.63065       -0.55849
B          2.72960        3.18364        0.05603
B          1.44281        4.00006       -0.25265
B          2.58520        1.42309        0.84022
B          3.92542        2.24978        0.05644
B          4.01474        0.67800        0.39480
B          1.34935        2.23054       -0.04891
B          1.04180       -2.54158        0.31054
B         -3.25834        0.10440        0.64177
B          1.25560        0.85896        1.56030
B         -4.57144       -2.31193       -0.47088
B          5.16271       -1.78517       -0.78250
B          5.31837       -0.23389       -0.06828
B          5.31939        1.43303       -0.33851
B          6.41358        0.58641       -1.01289
B          6.33172       -0.88105       -1.20821
B         -1.73579        0.87552        1.02302
B         -0.19717        0.01666        1.21789
B         -0.36205       -1.71996        0.86300
B         -5.60310       -1.32550       -1.02661
B         -5.77373        0.19700       -1.05793
B         -5.50415        1.74689       -1.10624
B          1.02255        0.65882       -0.15272
