45
isomer_0333.log	Energy: -113469.9728162
B          2.66452       -1.38995        0.56897
B          2.84087       -3.06644        0.47671
B          1.70418       -3.89797       -0.16230
B          0.08447       -3.19303        0.35827
B          1.13251       -0.77939        0.39158
B         -1.73376       -0.94022        1.02427
B         -1.11449       -3.71738       -0.83845
B          4.04810       -0.48305        0.49433
B         -1.49712       -2.48415        0.26675
B          4.17824       -2.09686        0.23572
B          0.44824       -3.92691       -1.03639
B         -2.61566       -3.25804       -0.66148
B         -2.98322       -1.83358        0.19128
B         -4.39881       -1.04776       -0.23615
B         -0.46814        1.70235        0.87241
B         -1.99592        2.38782        0.54295
B         -3.40732        1.51962        0.51004
B         -4.78250        0.49686        0.31684
B         -4.71976        2.19760       -0.28847
B         -3.44004        3.10364       -0.04312
B         -2.08335        3.95589       -0.23839
B         -0.60379        3.32669        0.39320
B         -0.70786        4.53412       -0.62556
B          2.19832        3.39979       -0.35566
B          0.78655        4.08763       -0.45808
B          2.40312        1.77810        0.31848
B          3.63185        2.61400       -0.50372
B          3.88514        1.17474        0.29751
B          0.93678        2.54374        0.20757
B          1.38321       -2.24665       -0.48945
B         -3.35752       -0.24265        0.83649
B          1.04256        0.88118        0.63853
B         -4.12323       -2.58684       -0.91726
B          5.39465       -1.29214       -0.30308
B          5.29804        0.41850       -0.18994
B          5.06361        2.01249       -0.75516
B          6.33187        1.16001       -1.16824
B          6.45926       -0.31775       -1.00631
B         -1.89221        0.75058        0.87598
B          1.40224       -2.45381        1.29861
B         -0.14703       -1.73409        1.14819
B         -5.40016       -1.85470       -1.19529
B         -5.80440       -0.34625       -0.94454
B         -5.72809        1.15713       -0.80508
B         -0.31391       -0.01290        0.95741
