45
isomer_3330.log	Energy: -112576.4464596
B          2.61900       -1.61196        0.39073
B          2.62286       -3.24520       -0.00941
B          1.22222       -4.08412       -0.25686
B         -0.23928       -3.27101        0.30924
B          1.15337       -0.73626        0.71318
B         -1.72063       -0.79119        0.80951
B         -1.62567       -4.05975       -0.38368
B          4.06992       -0.72469        0.32215
B         -1.63018       -2.38780        0.22892
B          4.02274       -2.41140       -0.15514
B         -0.19586       -4.70949       -0.53687
B         -3.06471       -3.22481       -0.38204
B         -3.10256       -1.61071        0.20438
B         -4.57107       -0.80430       -0.27654
B         -0.30771        1.77610        0.90172
B         -1.69860        2.46707        0.28956
B         -3.14852        1.64966        0.24510
B         -4.59388        0.81445       -0.25632
B         -4.44925        2.37724       -0.48271
B         -3.15636        3.27833       -0.30082
B         -1.74142        4.15326       -0.28111
B         -0.33311        3.38684        0.39240
B         -0.33054        4.84666       -0.41752
B          2.52850        3.44966        0.07421
B          1.10470        4.25470       -0.15271
B          2.57080        1.80748        0.43344
B          3.95127        2.65953       -0.09181
B          4.04613        0.96343        0.34323
B          1.12986        2.60937        0.61183
B          1.20128       -2.45834        0.54854
B         -3.20587       -0.08661        0.62041
B          1.13054        0.88305        0.73340
B         -4.38254       -2.35625       -0.54183
B          5.33351       -1.58180       -0.65415
B          5.30858        0.04613       -0.39987
B          5.28472        1.87992       -0.61092
B          6.46096        0.94925       -1.22946
B          6.48284       -0.60320       -1.24885
B         -1.74383        0.85455        0.83006
B          1.14664       -1.90752        1.75703
B         -0.25910       -1.67341        0.85863
B         -5.90185       -1.66401       -0.74135
B         -6.12129        0.04698       -0.78421
B         -5.94793        1.77952       -0.76896
B          0.08132       -0.92935       -0.65452
