45
isomer_3331.log	Energy: -112835.5351156
B         -2.64031       -1.67873       -0.46899
B         -2.61795       -3.32870       -0.08598
B         -1.21928       -4.15683        0.14787
B          0.22473       -3.34904       -0.39221
B         -1.20918       -0.87446       -0.76846
B          1.73314       -0.82139       -0.84865
B          1.61151       -4.12366        0.28793
B         -4.06316       -0.78016       -0.37866
B          1.62618       -2.45199       -0.29226
B         -4.00258       -2.45893        0.06080
B          0.20513       -4.74341        0.41401
B          3.03546       -3.28175        0.30830
B          3.09885       -1.66453       -0.24132
B          4.56686       -0.84431        0.25489
B          0.42505        1.80481       -0.93201
B          1.76702        2.45357       -0.27657
B          3.18013        1.63288       -0.23404
B          4.59306        0.77883        0.25675
B          4.49324        2.34946        0.53538
B          3.17267        3.24308        0.34879
B          1.77175        4.10569        0.34335
B          0.36614        3.36647       -0.36724
B          0.35963        4.73858        0.46934
B         -2.52614        3.38438       -0.05641
B         -1.08479        4.18115        0.19340
B         -2.68789        1.74154       -0.43442
B         -3.99226        2.57313        0.10350
B         -4.06238        0.92720       -0.36945
B         -1.15672        2.58132       -0.59155
B         -1.24281       -2.54769       -0.62022
B          3.22818       -0.09627       -0.63406
B         -1.43930        0.78409       -0.69913
B          4.39999       -2.43008        0.51163
B         -5.29365       -1.64293        0.58272
B         -5.28586        0.00386        0.35468
B         -5.27631        1.79041        0.59280
B         -6.40046        0.84601        1.18538
B         -6.43108       -0.66270        1.18901
B          1.78481        0.86123       -0.85337
B         -0.58389       -1.09964        0.94134
B          0.23371       -1.74795       -0.91466
B          5.82195       -1.66020        0.70330
B          6.03497       -0.02147        0.76874
B          5.87366        1.62100        0.78267
B         -0.39181        0.69813       -0.87692
