45
isomer_3332.log	Energy: -112810.3730960
B          2.72077       -1.56886        0.37837
B          2.77224       -3.21177       -0.04638
B          1.38434       -4.07213       -0.29845
B         -0.11993       -3.28455        0.28073
B          1.24405       -0.71261        0.71476
B         -1.70301       -0.75300        0.80819
B         -1.50741       -4.05904       -0.43811
B          4.09359       -0.67098        0.31063
B         -1.56979       -2.39697        0.17948
B          4.08806       -2.34456       -0.17162
B         -0.03411       -4.66580       -0.57436
B         -2.95960       -3.23774       -0.43232
B         -3.07131       -1.61628        0.16654
B         -4.54085       -0.81047       -0.30308
B         -0.31095        1.76707        0.91504
B         -1.72151        2.46896        0.29878
B         -3.15955        1.64320        0.24506
B         -4.58469        0.80718       -0.26333
B         -4.47058        2.38322       -0.49533
B         -3.15392        3.27499       -0.29114
B         -1.76299        4.13427       -0.26335
B         -0.34968        3.37694        0.40616
B         -0.35169        4.78975       -0.38596
B          2.50171        3.43714        0.07287
B          1.06853        4.22089       -0.13620
B          2.56928        1.79642        0.43754
B          3.90126        2.66175       -0.09599
B          4.03191        1.00859        0.33835
B          1.13908        2.59193        0.61875
B          1.35156       -2.45665        0.52792
B         -3.20295       -0.07221        0.60714
B          1.16951        0.86866        0.73925
B         -4.35298       -2.37640       -0.60725
B          5.35534       -1.48577       -0.67056
B          5.28547        0.13542       -0.40501
B          5.21918        1.92101       -0.61005
B          6.37903        1.04134       -1.23111
B          6.45068       -0.48390       -1.26459
B         -1.74839        0.87795        0.83264
B          0.58842       -2.61201        1.74405
B         -0.15618       -1.65262        0.86593
B         -5.80723       -1.63870       -0.78553
B         -6.03762        0.02194       -0.80383
B         -5.89877        1.67752       -0.76829
B         -0.73832       -0.72315       -0.14636
