45
isomer_3336.log	Energy: -113393.9935273
B         -2.44340        1.84675        0.29073
B         -2.32987        3.42965       -0.26966
B         -0.86099        4.17101       -0.42383
B          0.50422        3.36909        0.23748
B         -0.98769        0.91842        0.55795
B          1.77744        0.74281        0.78667
B          1.96452        4.05585       -0.32134
B         -3.88810        1.05134        0.33792
B          1.92394        2.44768        0.42620
B         -3.70610        2.66752       -0.40476
B          0.58662        4.70423       -0.60491
B          3.30860        3.17025       -0.13817
B          3.34008        1.59959        0.42742
B          4.74179        0.69504        0.31372
B          0.22268       -1.84992        1.09209
B          1.62156       -2.49962        0.30646
B          3.02666       -1.73327        0.11398
B          4.52255       -0.91184       -0.10380
B          4.34919       -2.51483       -0.70879
B          2.91461       -3.23554       -0.50675
B          1.46791       -3.94762       -0.78966
B          0.16847       -3.27607       -0.00413
B          0.05436       -4.44143       -1.06248
B         -2.69734       -3.19341       -0.09383
B         -1.36221       -3.90732       -0.55622
B         -2.66868       -1.67543        0.99400
B         -3.99012       -2.34638       -0.03401
B         -3.97666       -0.70794        0.41607
B         -1.28348       -2.67719        0.58200
B         -0.95972        2.59138        0.29532
B          3.25577       -0.10409        0.70681
B         -0.93969       -0.61680        0.83491
B          4.68233        2.31757       -0.34608
B         -5.08912        1.88220       -0.67373
B         -5.26003        0.24135       -0.15098
B         -5.16899       -1.45991       -0.55932
B         -6.14887       -0.48344       -1.29641
B         -6.20431        1.01052       -1.24868
B          1.64931       -0.86428        0.86225
B         -2.51229        0.12923        0.65661
B          0.43955        1.69164        0.70587
B          5.73776        1.32715       -0.79678
B          5.91105       -0.19280       -0.81796
B          5.62660       -1.70284       -0.93607
B         -1.31989       -1.71832        1.90393
