45
isomer_3337.log	Energy: -113661.3331579
B         -2.58180       -1.74795       -0.58819
B         -2.52140       -3.33992        0.00613
B         -1.15654       -4.16675        0.13491
B          0.29028       -3.35706       -0.41522
B         -1.15571       -0.84006       -1.00726
B          1.79729       -0.85571       -1.07092
B          1.66337       -4.17332        0.26077
B         -3.95856       -0.85307       -0.20993
B          1.75868       -2.56541       -0.58592
B         -3.84946       -2.49527        0.29184
B          0.23976       -4.75327        0.37316
B          2.99548       -3.30438        0.29691
B          3.14308       -1.75800       -0.30731
B          4.40099       -0.83791        0.37595
B          0.35893        1.79570       -0.98243
B          1.81355        2.56076       -0.58210
B          3.17756        1.72307       -0.29091
B          4.55011        0.81435        0.17274
B          4.39177        2.45607        0.72205
B          3.07234        3.30335        0.29239
B          1.74207        4.15290        0.26665
B          0.34889        3.38465       -0.48393
B          0.32003        4.72945        0.39196
B         -2.46053        3.35623        0.01834
B         -1.08801        4.17472        0.12784
B         -2.55299        1.77639       -0.60475
B         -3.80404        2.51624        0.30879
B         -3.94513        0.89671       -0.20782
B         -1.10227        2.51829       -0.50282
B         -1.15154       -2.51026       -0.57089
B          3.25181       -0.01666       -0.53828
B         -1.12576        0.85011       -1.02523
B          4.35003       -2.50239        0.74155
B         -5.10280       -1.66728        0.82984
B         -5.21061        0.02556        0.48605
B         -5.07847        1.71949        0.82866
B         -6.10086        0.79329        1.57772
B         -6.11013       -0.72721        1.57964
B          1.80634        0.84909       -0.90279
B         -2.63471        0.01047       -0.86145
B          0.37040       -0.00045       -1.21136
B          5.45479       -1.60345        1.28152
B          5.62787       -0.04012        1.30252
B          5.43809        1.51055        1.29445
B          0.32780       -1.80154       -1.01289
