45
isomer_3338.log	Energy: -113508.0169000
B          2.32690       -1.64310        0.23402
B          2.24737       -3.29711       -0.21353
B          0.91402       -4.10930       -0.21665
B         -0.50561       -3.37999        0.52970
B          1.08802       -0.89712        1.10208
B         -1.91591       -0.78598        1.06184
B         -1.85711       -4.09009       -0.28876
B          3.79707       -0.91997        0.11235
B         -1.90473       -2.48410        0.57738
B          3.65232       -2.52031       -0.35651
B         -0.49984       -4.69969       -0.41747
B         -3.18028       -3.15850       -0.30404
B         -3.26931       -1.63960        0.27912
B         -4.55411       -0.63401       -0.28797
B         -0.23948        1.75144        1.07528
B         -1.63932        2.55835        0.62523
B         -3.08755        1.81621        0.31742
B         -4.58908        1.03346       -0.02742
B         -4.22646        2.65179       -0.67178
B         -2.88382        3.38295       -0.21588
B         -1.45778        4.13881       -0.28347
B         -0.12490        3.22070        0.33987
B         -0.04037        4.64417       -0.39165
B          2.71011        3.24323       -0.01303
B          1.32898        3.95683       -0.17226
B          2.74867        1.64012       -0.18260
B          4.16741        2.47197       -0.16018
B          3.99039        0.78090        0.22618
B          1.35763        2.20757        0.45324
B          1.01816       -2.59772        0.68127
B         -3.36774        0.10552        0.65585
B          2.15127        0.17715        0.11563
B         -4.48517       -2.27812       -0.79638
B          5.04156       -1.82847       -0.72107
B          5.20772       -0.15718       -0.37922
B          5.38672        1.55159       -0.55531
B          6.45970        0.51725       -1.11599
B          6.29852       -0.98774       -1.18665
B         -1.77850        0.84259        0.85749
B          1.01127        0.70264        1.25090
B         -0.46765       -1.84234        1.15809
B         -5.52181       -1.32507       -1.34646
B         -5.58926        0.22601       -1.32726
B         -5.25938        1.73916       -1.29614
B         -0.45863       -0.08490        1.27473
