45
isomer_3340.log	Energy: -113701.6351901
B         -2.13001       -1.93921       -0.64138
B         -1.45191       -2.77752        0.95185
B         -0.13669       -3.71991        0.81583
B          1.05873       -3.30908       -0.36557
B         -0.77299       -1.42694       -1.56559
B          1.92893       -0.66090       -1.07359
B          2.58794       -3.59819        0.38596
B         -3.50863       -1.07361       -0.35627
B          2.37210       -2.28496       -0.78466
B         -2.39956       -1.54078        1.11906
B          1.31706       -4.20939        0.93284
B          3.83872       -2.62837        0.06779
B          3.48754       -1.12802       -0.36127
B          4.53601        0.12919        0.15276
B         -0.25250        1.30485       -0.82572
B          0.91517        2.51508       -0.47964
B          2.51420        2.16841       -0.25077
B          4.18144        1.75153       -0.15024
B          3.52648        3.22141        0.58309
B          1.97289        3.62957        0.22720
B          0.37818        4.02597        0.24427
B         -0.71091        2.85418       -0.46670
B         -1.11990        4.15734        0.39702
B         -3.36279        2.02168        0.10155
B         -2.31311        3.19815        0.15875
B         -3.15483        0.58421       -0.86269
B         -4.42036        0.86191        0.55087
B         -4.64734        0.11262       -1.18059
B         -1.89885        1.62639       -0.51810
B         -0.61063       -2.78325       -0.52579
B          3.11630        0.56431       -0.68627
B         -1.53571       -0.11202       -0.86734
B          4.97267       -1.50363        0.46117
B         -3.81027       -0.80447        1.42236
B         -5.07821       -0.83079        0.21595
B         -5.96582        0.52146       -0.47516
B         -6.17818        0.41803        0.97758
B         -5.12542       -0.19204        1.86576
B          1.40466        0.86688       -0.69615
B         -0.84431       -1.19059        0.45337
B          0.81243       -1.90856       -1.42451
B          5.84524       -0.32765        0.92188
B          5.55330        1.20775        0.97375
B          4.83788        2.58748        1.03997
B          0.27106       -0.37856       -0.46260
