45
isomer_3341.log	Energy: -113675.8856584
B          2.50841        1.76018       -0.48794
B          2.42696        3.33537        0.03954
B          1.04676        4.15735        0.12337
B         -0.35175        3.38449       -0.51306
B          1.12929        0.84881       -1.04135
B         -1.78665        0.83009       -0.91133
B         -1.74919        4.14405        0.24596
B          3.95579        0.91104       -0.21546
B         -1.80289        2.53241       -0.48972
B          3.80916        2.53787        0.29257
B         -0.34271        4.74576        0.35277
B         -3.09290        3.28013        0.26558
B         -3.17389        1.67985       -0.26030
B         -4.53241        0.79679        0.23731
B         -0.31225       -1.83084       -1.08713
B         -1.72362       -2.55138       -0.42952
B         -3.12832       -1.73380       -0.22059
B         -4.54668       -0.89513        0.14473
B         -4.32564       -2.50008        0.77088
B         -3.00734       -3.34085        0.27988
B         -1.64077       -4.16990        0.25924
B         -0.26815       -3.40308       -0.53833
B         -0.21839       -4.74791        0.35379
B          2.51477       -3.30390        0.03585
B          1.15804       -4.14932        0.10857
B          2.56369       -1.73063       -0.53097
B          3.87054       -2.48449        0.27500
B          3.98449       -0.84471       -0.22520
B          1.18641       -2.57808       -0.78968
B          1.11856        2.59019       -0.76510
B         -3.29372       -0.01647       -0.60979
B          1.17038       -0.85095       -1.06797
B         -4.40779        2.44392        0.74849
B          5.06011        1.73974        0.86484
B          5.19511        0.04561        0.52327
B          5.10506       -1.65076        0.84467
B          6.10495       -0.70551        1.60551
B          6.08425        0.81521        1.61284
B         -1.71752       -0.84375       -0.78785
B          2.60938        0.01667       -0.74586
B         -0.36968        1.82527       -1.11742
B         -5.47399        1.51795        1.30062
B         -5.62034       -0.03409        1.30411
B         -5.37290       -1.57007        1.33805
B         -0.34261       -0.00306       -1.09288
