45
isomer_3342.log	Energy: -113675.8812301
B         -2.56341       -1.73048       -0.53030
B         -2.51384       -3.30335        0.03592
B         -1.15641       -4.14837        0.11024
B          0.26894       -3.40227       -0.53711
B         -1.16982       -0.85060       -1.06691
B          1.71923       -0.84391       -0.79167
B          1.64204       -4.16889        0.26026
B         -3.98495       -0.84516       -0.22651
B          1.72504       -2.55128       -0.43043
B         -3.87043       -2.48479        0.27412
B          0.21998       -4.74730        0.35489
B          3.00859       -3.33973        0.27983
B          3.12971       -1.73329       -0.22203
B          4.54678       -0.89401        0.14680
B          0.36849        1.82584       -1.11741
B          1.80216        2.53268       -0.48889
B          3.17357        1.67996       -0.26084
B          4.53360        0.79828        0.23424
B          4.40742        2.44420        0.74803
B          3.09211        3.28028        0.26534
B          1.74812        4.14401        0.24582
B          0.35092        3.38538       -0.51535
B          0.34185        4.74592        0.35229
B         -2.42729        3.33411        0.04268
B         -1.04712        4.15702        0.12476
B         -2.50893        1.75976       -0.48641
B         -3.80990        2.53690        0.29459
B         -3.95714        0.91072       -0.21601
B         -1.11913        2.58962       -0.76311
B         -1.18555       -2.57736       -0.78888
B          3.29442       -0.01664       -0.61023
B         -1.12904        0.84753       -1.03776
B          4.32700       -2.49937        0.77111
B         -5.10556       -1.65194        0.84333
B         -5.19661        0.04428        0.52134
B         -5.06150        1.73838        0.86466
B         -6.08620        0.81337        1.61107
B         -6.10631       -0.70728        1.60354
B          1.78539        0.83014       -0.90964
B         -2.61050        0.01698       -0.74678
B          0.31314       -1.83074       -1.08815
B          5.37461       -1.57009        1.33842
B          5.62015       -0.03364        1.30413
B          5.47288        1.51812        1.30088
B          0.34350       -0.00299       -1.09386
