45
isomer_3343.log	Energy: -111093.0190410
B          2.49997        1.87381       -0.47862
B          2.44832        3.50192       -0.06126
B          1.02072        4.28585        0.21116
B         -0.41641        3.42499       -0.34671
B          1.06392        0.94778       -0.79348
B         -1.81109        0.89725       -0.85618
B         -1.82263        4.15477        0.37044
B          3.98336        1.04021       -0.43613
B         -1.77272        2.49012       -0.25977
B          3.87964        2.71907        0.05953
B         -0.41605        4.85541        0.51406
B         -3.22980        3.26719        0.37648
B         -3.21503        1.65885       -0.22656
B         -4.64697        0.79378        0.26263
B         -0.30559       -1.61490       -0.99185
B         -1.66267       -2.36308       -0.37111
B         -3.14113       -1.60040       -0.30132
B         -4.61027       -0.82442        0.22550
B         -4.40539       -2.38301        0.43363
B         -3.08239       -3.23371        0.22735
B         -1.63646       -4.05542        0.18210
B         -0.26549       -3.23058       -0.49938
B         -0.19944       -4.69746        0.29492
B          2.60007       -3.19065       -0.21478
B          1.20974       -4.05011        0.01994
B          2.57748       -1.54445       -0.55704
B          3.99459       -2.35012       -0.05676
B          4.02163       -0.64733       -0.47485
B          1.16509       -2.39729       -0.72736
B          1.05022        2.66869       -0.61115
B         -3.26696        0.13629       -0.65751
B          1.10063       -0.67097       -0.83061
B         -4.51269        2.34887        0.54218
B          5.22596        1.93354        0.53462
B          5.25810        0.30847        0.26338
B          5.30443       -1.52700        0.45523
B          6.45279       -0.55976        1.07005
B          6.41760        0.99216        1.10565
B         -1.77378       -0.74792       -0.89392
B          1.80477       -2.32943        2.43924
B         -0.38378        1.83343       -0.91274
B         -6.00295        1.59885        0.75179
B         -6.15858       -0.11943        0.77903
B         -5.92161       -1.84412        0.74341
B          1.58084       -1.74975       -0.30322
