45
isomer_3344.log	Energy: -113442.5265166
B          2.60453        1.64760       -0.61951
B          2.61427        3.32250       -0.21034
B          1.25817        4.09633        0.05587
B         -0.27035        3.40734       -0.53826
B          1.14360        0.89056       -0.90645
B         -1.78098        0.89672       -0.78639
B         -1.55960        4.08660        0.43240
B          3.98228        0.80391       -0.39912
B         -1.70634        2.55658       -0.29424
B          3.95922        2.43168       -0.00351
B         -0.12074        4.61980        0.49583
B         -2.99667        3.29552        0.47802
B         -3.06960        1.71911       -0.00795
B         -4.51082        0.83374        0.29472
B         -0.33837       -1.66462       -0.99512
B         -1.77865       -2.49142       -0.50609
B         -3.21868       -1.65852       -0.36210
B         -4.68345       -0.79625       -0.18371
B         -4.52813       -2.42181        0.42626
B         -3.16669       -3.25773        0.05625
B         -1.79162       -4.05936        0.16476
B         -0.31100       -3.32939       -0.60780
B         -0.38036       -4.51818        0.46524
B          2.36493       -3.05011        0.44980
B          1.01663       -3.90811        0.32341
B          2.72757       -1.86490       -1.01847
B          3.65222       -2.19928        0.74176
B          3.89866       -0.90734       -0.44325
B          1.24672       -2.47701       -0.69172
B          1.24546        2.58311       -0.74119
B         -3.28323        0.06229       -0.61676
B          1.23668       -0.74534       -0.70918
B         -4.36564        2.48075        0.85591
B          5.09669        1.60008        0.64936
B          5.22831       -0.08907        0.27095
B          5.11716       -1.66064        0.84101
B          6.31274       -0.82499        1.28383
B          6.14368        0.63420        1.37649
B         -1.73673       -0.78784       -0.69057
B          2.26584       -1.25405        0.49642
B         -0.31095        1.78905       -1.09783
B         -5.54104        1.57886        1.23777
B         -5.79607        0.04720        1.07636
B         -5.57502       -1.47702        0.96736
B         -0.29461        0.05943       -1.01021
