45
isomer_3347.log	Energy: -113453.8426922
B         -2.28753        1.60266        0.48712
B         -2.10347        3.21059       -0.50989
B         -0.73832        3.97685       -0.60336
B          0.64101        3.37657        0.28667
B         -0.97057        1.08833        1.21134
B          1.86215        0.78317        0.92258
B          2.09361        3.95225       -0.46788
B         -3.79128        1.01590        0.21375
B          2.01842        2.45423        0.57142
B         -3.44395        2.43841       -0.51067
B          0.73779        4.50335       -0.83688
B          3.41305        3.05812       -0.21391
B          3.36978        1.53042        0.42742
B          4.72321        0.47647        0.22398
B          0.02078       -1.63600        0.89184
B          1.41666       -2.43625        0.21198
B          2.92245       -1.88391        0.30450
B          4.38588       -1.11387       -0.09949
B          4.17559       -2.72374       -0.61774
B          2.63257       -3.32155       -0.47373
B          1.17798       -3.95555       -0.71087
B         -0.13988       -2.76551       -0.39060
B         -0.22975       -4.37324       -0.79744
B         -2.83069       -2.93560        0.19348
B         -1.57016       -3.65734       -0.38950
B         -2.74434       -1.23672        0.59743
B         -4.19674       -2.13012        0.19467
B         -4.25636       -0.60169        0.60621
B         -1.48990       -1.78689       -0.54117
B         -0.89271        2.58203        0.37865
B          3.27728       -0.21298        0.77409
B         -1.34162       -0.44859        0.68558
B          4.69462        2.12543       -0.45969
B         -4.92095        1.85891       -0.81395
B         -5.33171        0.41484       -0.06629
B         -5.56037       -1.27181       -0.18876
B         -6.50342       -0.31955       -0.96136
B         -6.18288        1.09537       -1.28360
B          1.64136       -0.87381        1.06180
B         -1.44781       -2.39779        1.10604
B          0.54871        1.87844        1.04385
B          5.70207        1.07107       -0.89994
B          5.78300       -0.45916       -0.89178
B          5.43526       -1.99295       -0.94007
B          0.30119        0.04119        1.27417
