45
isomer_3348.log	Energy: -112415.0467452
B          2.55794       -1.66523        0.39449
B          2.55038       -3.30414        0.01826
B          1.14375       -4.13800       -0.21168
B         -0.31063       -3.30779        0.34793
B          1.09888       -0.77598        0.70957
B         -1.77501       -0.81192        0.81741
B         -1.70440       -4.09807       -0.32822
B          4.01395       -0.78794        0.30754
B         -1.69644       -2.41736        0.25989
B          3.95472       -2.48112       -0.14486
B         -0.27915       -4.75871       -0.47723
B         -3.13834       -3.25441       -0.33342
B         -3.16418       -1.63172        0.22948
B         -4.62959       -0.82346       -0.25769
B         -0.34621        1.74775        0.86681
B         -1.73522        2.43821        0.24980
B         -3.19022        1.62911        0.22271
B         -4.64252        0.79553       -0.26106
B         -4.48929        2.35393       -0.51081
B         -3.19028        3.24965       -0.34693
B         -1.77000        4.11612       -0.34528
B         -0.36380        3.35101        0.33410
B         -0.35548        4.79881       -0.49707
B          2.49691        3.39169        0.00435
B          1.07715        4.20201       -0.22900
B          2.53063        1.75469        0.38739
B          3.91422        2.59054       -0.15540
B          4.00046        0.90041        0.30403
B          1.09526        2.56790        0.55942
B          1.13574       -2.50054        0.56994
B         -3.25666       -0.10112        0.62357
B          1.08595        0.84356        0.70620
B         -4.45148       -2.38024       -0.50097
B          5.26858       -1.66693       -0.66083
B          5.25448       -0.03534       -0.43028
B          5.24092        1.79529       -0.66802
B          6.40914        0.84852       -1.27728
B          6.42154       -0.70415       -1.27405
B         -1.78815        0.83405        0.81399
B          2.32673        0.40384        1.70202
B         -0.31866       -1.70225        0.87397
B         -5.96733       -1.68170       -0.70493
B         -6.17656        0.02979       -0.77197
B         -5.99265        1.76127       -0.78270
B          1.15492       -1.37557       -0.13316
