45
isomer_3349.log	Energy: -113473.6616558
B          2.59654       -1.70709        0.63278
B          2.50281       -3.10887       -0.39621
B          1.14010       -3.85238       -0.49344
B         -0.12127       -3.35458        0.61729
B          1.28967       -0.75965        0.80165
B         -1.65295       -0.76481        0.66109
B         -1.64650       -4.14322       -0.14395
B          3.98082       -0.82424        0.31448
B         -1.62131       -2.50190        0.31506
B          3.87179       -2.30007       -0.36135
B         -0.28902       -4.49903       -0.57808
B         -3.01391       -3.31627       -0.07275
B         -3.08832       -1.70374        0.34267
B         -4.56668       -0.86240        0.16168
B         -0.35591        1.86236        1.05963
B         -1.77735        2.55803        0.47034
B         -3.15635        1.73208        0.22292
B         -4.51269        0.77494       -0.20714
B         -4.42557        2.44752       -0.72329
B         -3.08835        3.28712       -0.33518
B         -1.71481        4.14673       -0.39386
B         -0.33194        3.37451        0.35617
B         -0.31904        4.70609       -0.54435
B          2.47154        3.34715       -0.02151
B          1.10004        4.11454       -0.24546
B          2.51698        1.67781        0.55881
B          3.81399        2.53456       -0.10773
B          3.93184        0.94394        0.29591
B          1.15011        2.60652        0.65874
B          1.34585       -2.76599        1.10272
B         -3.26235        0.03678        0.67632
B          1.17405        0.89360        1.01917
B         -4.36677       -2.47051       -0.47441
B          5.23846       -1.51063       -0.65168
B          5.25051        0.10456       -0.17934
B          5.17210        1.74815       -0.56733
B          6.26042        0.90575       -1.22608
B          6.30470       -0.56873       -1.26953
B         -1.78431        0.88089        0.93256
B          1.09857       -2.06404       -0.48212
B         -0.17481       -1.63616        0.55685
B         -5.41564       -1.53969       -1.04302
B         -5.71682       -0.02099       -1.09083
B         -5.56170        1.51464       -1.14596
B         -0.24651        0.07668        0.99774
