45
isomer_0335.log	Energy: -112822.0362674
B         -2.71397       -1.49261       -0.40461
B         -2.69706       -3.25550        0.00978
B         -1.29533       -4.19790        0.33956
B          0.30810       -3.32317       -0.31073
B         -1.33987       -0.54173       -0.72950
B          1.76642       -0.71781       -0.80580
B          1.64515       -4.09373        0.42409
B         -4.04391       -0.63431       -0.32366
B          1.70884       -2.41704       -0.20614
B         -4.00863       -2.31202        0.14751
B          0.21395       -4.72483        0.57792
B          3.06849       -3.22973        0.42754
B          3.14319       -1.60009       -0.16879
B          4.57885       -0.73712        0.30100
B          0.27379        1.81482       -0.92704
B          1.69467        2.51150       -0.31375
B          3.14295        1.70393       -0.25203
B          4.57716        0.87950        0.26147
B          4.44484        2.47034        0.49688
B          3.10960        3.31851        0.28348
B          1.69988        4.17079        0.25525
B          0.30753        3.42386       -0.40812
B          0.30458        4.80268        0.37939
B         -2.53416        3.47860       -0.06886
B         -1.10926        4.25353        0.13415
B         -2.58911        1.83410       -0.44500
B         -3.90955        2.68004        0.10013
B         -4.01120        1.03913       -0.33669
B         -1.18029        2.63760       -0.61997
B         -1.29799       -2.38103       -0.55620
B          3.23040       -0.01264       -0.60398
B         -1.20833        0.94737       -0.75769
B          4.45685       -2.33108        0.61062
B         -5.26493       -1.47603        0.67322
B         -5.22847        0.15602        0.41336
B         -5.18723        1.91442        0.61868
B         -6.30094        1.01416        1.24095
B         -6.36193       -0.48913        1.28831
B          1.76047        0.91718       -0.84558
B         -1.15409       -3.79057       -1.13324
B          0.34984       -1.68913       -0.91099
B          5.83250       -1.51409        0.76966
B          6.00593        0.12038        0.78273
B          5.83613        1.72784        0.75218
B         -0.02384       -0.85501       -0.15950
