45
isomer_3350.log	Energy: -113586.7285615
B          2.04261        1.66642       -0.42141
B          1.82651        3.28720        0.16710
B          0.40889        3.92276        0.40847
B         -0.93814        3.29412       -0.47060
B          0.79948        0.59243       -0.90538
B         -2.30491        0.85102       -1.18811
B         -2.42959        3.81848        0.45576
B          3.64485        1.17716       -0.11405
B         -2.42099        2.43240       -0.54997
B          3.29145        2.76910        0.23727
B         -1.03403        4.36067        0.72088
B         -3.72575        2.90560        0.36138
B         -3.70528        1.40898       -0.44774
B         -4.81820        0.23722        0.17099
B         -0.17707       -1.08844       -1.09847
B         -1.34670       -2.36606       -0.61141
B         -2.94057       -1.99984       -0.46145
B         -4.36629       -1.38288        0.26669
B         -3.83580       -2.95319        0.71384
B         -2.33938       -3.39036        0.24118
B         -0.76259       -3.78928        0.10630
B          0.29458       -2.60915       -0.46450
B          0.78907       -4.11104        0.26383
B          3.46269       -3.24024        0.39734
B          2.30868       -4.23156        0.56895
B          3.01924       -1.67209       -0.37361
B          4.55553       -2.02216        0.32124
B          4.10464       -0.47758       -0.07759
B          1.94100       -2.90376       -0.24088
B          0.52973        2.35266       -0.36950
B         -3.49610       -0.34338       -0.73424
B          2.43005        0.02163       -0.57414
B         -4.86413        1.84093        0.81860
B          4.78125        2.33970        0.53702
B          5.24210        0.71781        0.23827
B          5.65942       -0.92856        0.60031
B          6.54397        0.29122        1.07519
B          6.15905        1.74698        1.04923
B         -1.89719       -0.84103       -1.24782
B          1.44178       -1.33763       -0.76197
B         -0.85988        1.83769       -1.17022
B         -5.62142        0.71305        1.46702
B         -5.55144       -0.85308        1.40488
B         -5.09761       -2.34245        1.30972
B         -0.74350        0.29855       -1.61838
