45
isomer_3351.log	Energy: -113473.5834850
B         -2.41985        1.74221        0.30787
B         -2.24499        3.39266       -0.31166
B         -0.83779        4.09421       -0.43180
B          0.55933        3.30380        0.34633
B         -1.04248        0.80987        0.48322
B          1.88662        0.76398        0.88504
B          2.03001        3.98319       -0.22604
B         -3.90293        1.16055        0.35080
B          1.96694        2.40050        0.54916
B         -3.67939        2.61130       -0.43726
B          0.65088        4.57413       -0.58908
B          3.39881        3.13896       -0.04899
B          3.39164        1.55979        0.50919
B          4.77586        0.54993        0.31455
B          0.18837       -1.74845        1.24207
B          1.53422       -2.48239        0.32120
B          3.00449       -1.80128        0.20516
B          4.40386       -0.99787       -0.24489
B          4.16325       -2.56069       -0.87746
B          2.66323       -3.24466       -0.61047
B          1.16946       -3.71902       -0.79544
B         -0.05857       -3.15401        0.34337
B         -0.37947       -3.98200       -1.00500
B         -2.82109       -3.09078        0.40294
B         -1.65842       -3.94149       -0.16475
B         -2.63605       -1.41183        0.53885
B         -4.14478       -2.11850        0.16663
B         -4.02923       -0.51189        0.47811
B         -1.37917       -2.30985       -0.55548
B         -0.96083        2.49457        0.12150
B          3.35058       -0.20153        0.82745
B         -1.07133       -0.85572        0.29085
B          4.68543        2.24974       -0.30018
B         -5.11469        2.01328       -0.66016
B         -5.30541        0.39557       -0.14332
B         -5.36609       -1.30453       -0.34805
B         -6.45873       -0.32211       -0.98829
B         -6.37598        1.16275       -1.07186
B          1.75411       -0.93547        1.07744
B         -1.38712       -2.43619        1.25242
B          0.44388        1.66180        0.77285
B          5.70266        1.21103       -0.81897
B          5.81113       -0.29218       -0.93741
B          5.43221       -1.81347       -1.16453
B          0.30743       -0.03791        0.94410
