45
isomer_3352.log	Energy: -113660.9745055
B          2.51449       -1.75243        0.48910
B          2.44160       -3.34140       -0.04756
B          1.04546       -4.14194       -0.16407
B         -0.36660       -3.38616        0.49830
B          1.13429       -0.86403        1.02930
B         -1.76722       -0.83708        0.86377
B         -1.75997       -4.13379       -0.28454
B          3.97322       -0.91936        0.24769
B         -1.80360       -2.52363        0.49676
B          3.82107       -2.54650       -0.28330
B         -0.34618       -4.71901       -0.41302
B         -3.11014       -3.29026       -0.26813
B         -3.17586       -1.70044        0.24636
B         -4.54125       -0.80023       -0.21557
B         -0.30981        1.82678        1.06708
B         -1.72307        2.54345        0.40007
B         -3.13166        1.75211        0.22625
B         -4.52846        0.88191       -0.18523
B         -4.38264        2.51308       -0.71328
B         -3.02487        3.34980       -0.27140
B         -1.65326        4.15980       -0.27379
B         -0.28329        3.40884        0.56312
B         -0.21270        4.71663       -0.39071
B          2.54610        3.33057       -0.03341
B          1.17352        4.15818       -0.12257
B          2.57301        1.72102        0.50198
B          3.90998        2.49063       -0.25144
B          4.01333        0.85626        0.27527
B          1.19586        2.58559        0.66713
B          1.11822       -2.59249        0.70697
B         -3.27757        0.01633        0.56698
B          1.12897        0.87029        0.79871
B         -4.45584       -2.45939       -0.69627
B          5.08698       -1.74567       -0.82141
B          5.18931       -0.05465       -0.52388
B          5.15510        1.65215       -0.78465
B          6.20922        0.69930       -1.50034
B          6.18275       -0.82032       -1.51020
B         -1.74460        0.84349        0.79977
B          2.59505       -0.03175        0.73390
B         -0.36499       -1.83783        1.14781
B         -5.53725       -1.52250       -1.21279
B         -5.69368        0.03968       -1.21928
B         -5.47464        1.59916       -1.23969
B         -0.33837        0.00582        1.10022
