45
isomer_3353.log	Energy: -113516.3657848
B          2.55133        1.68979       -0.55089
B          2.53600        3.28573       -0.05034
B          1.13761        4.07686        0.20019
B         -0.30750        3.31550       -0.34164
B          1.09314        0.76021       -0.84905
B         -1.77795        0.86904       -0.91353
B         -1.66703        4.08519        0.42247
B          4.03081        0.87046       -0.39612
B         -1.74822        2.49405       -0.35489
B          3.92168        2.50353        0.08150
B         -0.25417        4.66468        0.51295
B         -3.05362        3.24159        0.43232
B         -3.20921        1.76234       -0.25906
B         -4.57581        0.85253        0.21870
B         -0.37957       -1.40304       -0.40138
B         -1.80812       -2.39136       -0.63644
B         -3.32740       -1.68059       -0.63008
B         -4.71294       -0.79642       -0.19401
B         -4.55640       -2.41314        0.33832
B         -3.19599       -3.23381       -0.08450
B         -1.78763       -3.85560        0.19566
B         -0.29467       -3.26774       -0.64096
B         -0.41298       -3.96663        0.89475
B          2.33817       -3.03815        0.42282
B          1.07107       -3.83270        0.77741
B          2.57311       -1.80124       -0.66361
B          3.84045       -2.32888        0.35820
B          4.00608       -0.87091       -0.40410
B          1.20490       -2.68860       -1.00712
B          1.12605        2.48126       -0.52839
B         -3.31986        0.09105       -0.67272
B          1.11206       -0.91876       -0.71796
B         -4.46250        2.47504        0.73067
B          5.22822        1.68968        0.51685
B          5.36718        0.00600        0.13533
B          5.22520       -1.65277        0.61499
B          6.35537       -0.72402        1.19254
B          6.33629        0.76773        1.16383
B         -1.84849       -0.70989       -0.71403
B          2.56295        0.01863       -0.82423
B         -0.35352        1.69055       -0.91031
B         -5.69019        1.58464        1.05878
B         -5.87981        0.03882        0.96022
B         -5.63279       -1.49568        0.90671
B          0.63869       -2.24499        0.61015
