45
isomer_3354.log	Energy: -111252.9538000
B         -2.58882       -1.63075       -0.45413
B         -2.59445       -3.26929       -0.07629
B         -1.19494       -4.11145        0.16650
B          0.26920       -3.29065       -0.38139
B         -1.12173       -0.75069       -0.75752
B          1.75270       -0.80419       -0.84066
B          1.65230       -4.08870        0.30744
B         -4.04016       -0.74455       -0.38050
B          1.65960       -2.40856       -0.28231
B         -3.99511       -2.43760        0.07399
B          0.22183       -4.74052        0.44484
B          3.09124       -3.25376        0.32415
B          3.13177       -1.63182       -0.24005
B          4.59785       -0.83198        0.25891
B          0.33998        1.76406       -0.90475
B          1.72781        2.44669       -0.27650
B          3.17758        1.62880       -0.23615
B          4.62059        0.78690        0.26085
B          4.47470        2.34645        0.50780
B          3.18261        3.24988        0.33193
B          1.76770        4.12495        0.31727
B          0.36275        3.36772       -0.37342
B          0.35610        4.81637        0.45627
B         -2.50039        3.42609       -0.06828
B         -1.07778        4.22802        0.17648
B         -2.54077        1.78895       -0.45004
B         -3.92386        2.63372        0.08006
B         -4.01644        0.94370       -0.37849
B         -1.09907        2.59325       -0.61051
B         -1.17027       -2.47485       -0.61658
B          3.23693       -0.10220       -0.63479
B         -1.09898        0.86874       -0.75558
B          4.40819       -2.38741        0.50213
B         -5.30836       -1.61493        0.57790
B         -5.28238        0.01631        0.34593
B         -5.25972        1.84706        0.58204
B         -6.43885        0.90801        1.18214
B         -6.46067       -0.64456        1.18028
B          1.77583        0.84167       -0.83869
B         -1.33388       -1.07231        1.43490
B          0.29151       -1.68572       -0.90887
B          5.92645       -1.69789        0.71842
B          6.14550        0.01237        0.78564
B          5.97204        1.74494        0.79314
B         -1.09614       -0.71028       -1.34354
