45
isomer_3355.log	Energy: -113503.6491994
B         -2.71752       -1.35081       -1.57297
B         -3.01484       -2.56674       -0.20801
B         -1.83495       -3.62180        0.19940
B         -0.30637       -3.17511       -0.59514
B         -1.30370       -0.52588       -0.96395
B          1.51594       -0.85416       -0.73644
B          1.01964       -4.01640        0.38213
B         -2.86884        0.33367       -0.86135
B          1.31366       -2.53342       -0.42044
B         -4.09236       -1.13294       -0.84530
B         -0.51063       -4.19482        0.66998
B          2.47157       -3.44190        0.38182
B          2.83902       -1.90757       -0.25118
B          4.37174       -1.28232       -0.08269
B          0.41234        1.76361       -1.08585
B          1.90483        2.38566       -0.51758
B          3.21774        1.44276       -0.30984
B          4.53071        0.40309        0.11994
B          4.60341        2.08349        0.53413
B          3.32353        3.00949        0.21063
B          2.03931        3.97512        0.23833
B          0.56645        3.39068       -0.49506
B          0.70720        4.68628        0.43230
B         -2.18711        3.57545        0.24678
B         -0.76181        4.22075        0.23302
B         -2.48931        2.06042       -0.58769
B         -3.50840        2.80124        0.59940
B         -3.96868        1.48473       -0.15815
B         -0.97814        2.69944       -0.64177
B         -1.49153       -2.42318       -1.46861
B          3.11067       -0.24314       -0.64444
B         -1.17576        1.10452       -1.11040
B          3.94781       -2.74970        0.73287
B         -4.26608       -1.74129        0.66965
B         -4.11859        0.00609        0.59350
B         -4.55094        1.65926        1.31649
B         -5.11322        0.49011        2.03970
B         -4.93630       -0.91854        1.81233
B          1.73187        0.75545       -0.96386
B         -2.65205       -0.92613        0.37813
B          0.02989       -1.46074       -0.76270
B          5.12481       -1.91091        1.21041
B          5.66259       -0.46337        1.04174
B          5.70902        1.07060        0.94976
B         -1.30663       -1.96104        0.29098
