45
isomer_3357.log	Energy: -112535.5776809
B          2.58320       -1.63624        0.38743
B          2.58358       -3.27243       -0.00048
B          1.18103       -4.11133       -0.23689
B         -0.27748       -3.29208        0.32809
B          1.11981       -0.75622        0.70829
B         -1.75391       -0.80663        0.81480
B         -1.66725       -4.08415       -0.35420
B          4.03503       -0.75142        0.30727
B         -1.66750       -2.40766        0.24588
B          3.98404       -2.44159       -0.15721
B         -0.23881       -4.73691       -0.50738
B         -3.10519       -3.24733       -0.35392
B         -3.13896       -1.62884        0.22053
B         -4.60805       -0.82411       -0.26141
B         -0.33736        1.75941        0.88298
B         -1.72944        2.44761        0.27040
B         -3.18055        1.63180        0.23700
B         -4.62870        0.79478       -0.25324
B         -4.48282        2.35564       -0.49182
B         -3.18815        3.25635       -0.32107
B         -1.77203        4.12954       -0.31272
B         -0.36242        3.36632        0.36171
B         -0.36072        4.82004       -0.45912
B          2.49817        3.42298        0.03333
B          1.07465        4.22818       -0.19477
B          2.53958        1.78348        0.40470
B          3.91935        2.62976       -0.13160
B          4.01350        0.93683        0.31579
B          1.10029        2.58859        0.58198
B          1.16494       -2.47955        0.55639
B         -3.23887       -0.10154        0.62549
B          1.09915        0.86322        0.71647
B         -4.42243       -2.37825       -0.51572
B          5.29417       -1.61748       -0.66688
B          5.27222        0.01234       -0.42471
B          5.25000        1.84453       -0.64939
B          6.42293        0.90770       -1.26495
B          6.44273       -0.64487       -1.27279
B         -1.77491        0.83924        0.82312
B          2.52723       -0.64716        1.45027
B         -0.29336       -1.69039        0.86556
B         -5.94152       -1.68552       -0.71525
B         -6.15889        0.02539       -0.77018
B         -5.98324        1.75776       -0.76848
B          0.20695       -1.15978       -0.05330
