45
isomer_3360.log	Energy: -111865.8378312
B          2.56936        1.70601       -0.50461
B          2.56236        3.34392       -0.12407
B          1.15679        4.17264        0.12967
B         -0.30338        3.33915       -0.40961
B          1.10847        0.81284       -0.79947
B         -1.76684        0.83976       -0.86294
B         -1.68909        4.12319        0.28997
B          4.02933        0.83322       -0.44237
B         -1.68482        2.44402       -0.30254
B          3.97167        2.52504        0.01527
B         -0.26383        4.78806        0.41871
B         -3.12007        3.27489        0.31508
B         -3.14940        1.65356       -0.25156
B         -4.60454        0.83932        0.25604
B         -0.33080       -1.71515       -0.94096
B         -1.70792       -2.41166       -0.30442
B         -3.16491       -1.60735       -0.25282
B         -4.61224       -0.77970        0.25541
B         -4.45020       -2.33823        0.49874
B         -3.15101       -3.22932        0.31255
B         -1.72817       -4.09117        0.28679
B         -0.33506       -3.31981       -0.41219
B         -0.30929       -4.76967        0.41500
B          2.53051       -3.35206       -0.12667
B          1.11712       -4.16756        0.12644
B          2.55309       -1.71399       -0.50594
B          3.94755       -2.54673        0.01331
B          4.02130       -0.85518       -0.44302
B          1.11786       -2.53140       -0.65794
B          1.14196        2.53715       -0.65597
B         -3.24305        0.12367       -0.64814
B          1.10077       -0.80674       -0.80010
B         -4.42768        2.39606        0.50057
B          5.29592        1.71379        0.50883
B          5.28349        0.08276        0.27431
B          5.27945       -1.74850        0.50749
B          6.45388       -0.79950        1.10112
B          6.46127        0.75321        1.10172
B         -1.77467       -0.80625       -0.86357
B          2.06645        0.04050        1.91134
B         -0.31439        1.73493       -0.93963
B         -5.93796        1.69210        0.72604
B         -6.14066       -0.02022        0.79188
B         -5.95107       -1.75112        0.79529
B          0.39243       -0.40847       -0.30303
