45
isomer_3362.log	Energy: -112651.6271712
B          2.62250       -1.61808        0.37703
B          2.62632       -3.25028       -0.02731
B          1.22565       -4.08864       -0.27646
B         -0.23571       -3.27708        0.29223
B          1.15693       -0.74329        0.70222
B         -1.71704       -0.79864        0.79937
B         -1.62229       -4.06411       -0.40226
B          4.07335       -0.73055        0.31024
B         -1.62668       -2.39374        0.21465
B          4.02610       -2.41603       -0.17137
B         -0.19249       -4.71338       -0.55760
B         -3.06137       -3.22926       -0.39799
B         -3.09912       -1.61668        0.19260
B         -4.56784       -0.80912       -0.28575
B         -0.30423        1.76849        0.89771
B         -1.69536        2.46095        0.28780
B         -3.14525        1.64357        0.24172
B         -4.59074        0.80957       -0.26136
B         -4.44627        2.37295       -0.48378
B         -3.15337        3.27363       -0.30000
B         -1.73848        4.14860       -0.27851
B         -0.32990        3.38053        0.39255
B         -0.32768        4.84243       -0.41361
B          2.53161        3.44434        0.07356
B          1.10768        4.24987       -0.15081
B          2.57412        1.80123        0.42855
B          3.95437        2.65472       -0.09496
B          4.04947        0.95751        0.33568
B          1.13320        2.60258        0.60949
B          1.20489       -2.46495        0.53313
B         -3.20238       -0.09367        0.61259
B          1.13402        0.87595        0.72662
B         -4.37931       -2.36038       -0.55510
B          5.33666       -1.58507       -0.66869
B          5.31172        0.04220       -0.41021
B          5.28768        1.87652       -0.61653
B          6.46377        0.94751       -1.23785
B          6.48573       -0.60488       -1.26125
B         -1.74032        0.84704        0.82417
B          1.17598       -2.00112        1.78018
B         -0.25543       -1.68090        0.84574
B         -5.89873       -1.66771       -0.75233
B         -6.11828        0.04337       -0.79071
B         -5.94501        1.77588       -0.77106
B         -0.08847       -0.61193       -0.31234
