45
isomer_3364.log	Energy: -113319.1793459
B          2.33763        1.73754       -0.46359
B          2.19042        3.45974        0.11603
B          0.82993        4.20126        0.09923
B         -0.57355        3.40446       -0.57434
B          1.03682        1.09194       -1.08111
B         -1.83463        0.75606       -1.05464
B         -1.99536        4.02601        0.17893
B          3.72085        1.07927       -0.02352
B         -1.95823        2.39850       -0.50412
B          3.50473        2.64974        0.37627
B         -0.64284        4.71170        0.31908
B         -3.31350        3.08746        0.18064
B         -3.29499        1.50468       -0.32498
B         -4.59889        0.51275        0.17008
B         -0.50449       -1.92253       -1.67381
B         -1.38502       -2.44034       -0.23489
B         -2.85070       -1.80635       -0.10744
B         -4.30439       -1.10368        0.42820
B         -3.98468       -2.64973        1.02478
B         -2.50353       -3.24618        0.65990
B         -1.09714       -4.01987        0.48381
B          0.09767       -3.12702       -0.61628
B          0.25441       -4.56101        0.28280
B          2.97065       -3.27317       -0.27441
B          1.61692       -4.11049       -0.14968
B          2.77030       -1.51560       -0.71365
B          4.08570       -2.27779        0.16193
B          3.91676       -0.62475       -0.12861
B          1.59616       -2.54165       -0.82485
B          0.97020        2.71166       -0.77803
B         -3.24975       -0.20678       -0.58827
B          1.90184       -0.20924       -0.89775
B         -4.57366        2.17131        0.65759
B          4.85393        1.96643        0.98645
B          4.98900        0.31902        0.66672
B          5.20696       -1.33868        0.82583
B          6.15254       -0.33844        1.57137
B          5.97858        1.15511        1.66079
B         -1.70960       -0.93512       -1.17876
B          0.49768       -1.32929       -0.47514
B         -0.50031        1.78956       -1.14477
B         -5.55436        1.17343        1.25566
B         -5.59242       -0.37596        1.34215
B         -5.22969       -1.90870        1.43341
B         -0.22794       -0.04527       -1.06900
