45
isomer_3365.log	Energy: -113493.6137222
B         -2.96566        1.70576        0.75210
B         -2.86225        3.14296        0.03877
B         -1.54933        3.86856       -0.30662
B         -0.05677        3.14749        0.14193
B         -2.25612        0.24612        0.60011
B          1.68332        0.88591        0.67940
B          1.27987        4.08675       -0.55199
B         -4.13509        0.67315        0.40182
B          1.49368        2.48761        0.18304
B         -4.33481        2.28427       -0.02702
B         -0.19106        4.50365       -0.69357
B          2.73166        3.41710       -0.46836
B          2.99271        1.86931        0.15320
B          4.56353        1.18849        0.08145
B          0.53271       -1.74244        0.93349
B          2.01193       -2.38750        0.43431
B          3.43525       -1.54837        0.53970
B          4.61382       -0.48724       -0.12914
B          4.74103       -2.18230       -0.44661
B          3.42891       -3.08445       -0.10346
B          2.10407       -3.97734       -0.31146
B          0.61900       -3.30379        0.35315
B          0.72959       -4.52094       -0.68393
B         -2.12823       -3.26562       -0.52514
B         -0.73094       -3.97993       -0.54910
B         -2.34540       -1.66682        0.35685
B         -3.55282       -2.58089       -0.53080
B         -3.78474       -1.02433        0.08969
B         -0.91595       -2.51083        0.31303
B         -1.44515        2.02410        0.23702
B          3.32549        0.19957        0.70671
B         -1.03730       -0.93847        0.91252
B          4.17059        2.71913       -0.73352
B         -5.56102        1.36666       -0.38581
B         -5.26204       -0.34242       -0.22030
B         -4.99295       -1.95015       -0.78344
B         -6.28029       -1.14671       -1.18511
B         -6.55539        0.31273       -0.96825
B          1.91800       -0.74346        1.03620
B         -0.98092        0.69474        1.50359
B          0.15732        1.59721        0.64784
B          5.34659        1.85256       -1.13850
B          5.79326        0.36248       -1.00372
B          5.81235       -1.18816       -0.89164
B          0.43955       -0.06414        1.54158
