45
isomer_3367.log	Energy: -113523.2606474
B          2.62697        1.68377       -0.60325
B          2.63398        3.28457       -0.05560
B          1.24895        4.09362        0.20147
B         -0.22452        3.35020       -0.25734
B          1.13615        0.81423       -0.87877
B         -1.66311        0.83957       -0.58037
B         -1.57466        4.14111        0.42881
B          4.03589        0.79962       -0.47442
B         -1.65822        2.49292       -0.23529
B          4.00392        2.46869        0.01465
B         -0.14286        4.69891        0.55912
B         -3.01344        3.37667        0.30791
B         -3.15254        1.80099       -0.20560
B         -4.64208        1.01288       -0.17928
B         -0.38983       -1.63169       -0.87394
B         -1.80925       -2.48901       -0.36885
B         -3.22788       -1.59315       -0.33482
B         -4.62002       -0.65228        0.00206
B         -4.59321       -2.28897        0.47741
B         -3.26184       -3.20106        0.09522
B         -1.96639       -4.06374        0.18686
B         -0.33185       -3.36375       -0.63132
B         -0.60302       -4.33243        0.70003
B          2.21090       -3.06660        0.48590
B          0.84061       -3.78192        0.64398
B          2.44122       -1.82866       -0.64758
B          3.69289       -2.40047        0.43970
B          3.94092       -0.94917       -0.32055
B          1.13714       -2.76194       -1.12967
B          1.21724        2.49869       -0.54294
B         -3.26004        0.13334       -0.66754
B          1.04406       -0.84247       -0.80864
B         -4.40457        2.64161        0.56687
B          5.28457        1.63495        0.44603
B          5.32731       -0.07564        0.17726
B          5.05893       -1.69979        0.74761
B          6.20643       -0.77318        1.32984
B          6.32235        0.71243        1.16756
B         -1.78468       -0.76684       -0.73662
B          0.73252       -2.08342        0.42721
B         -0.28739        1.66688       -0.75053
B         -5.54247        1.69698        0.96992
B         -5.85181        0.20297        0.87233
B         -5.72706       -1.37346        0.88133
B          2.58977       -0.02599       -0.84616
