45
isomer_3368.log	Energy: -113902.4494037
B          3.34110       -0.03042       -1.01045
B          3.54243        1.35641        0.38998
B          2.66531        2.66407        0.03441
B          1.27955        2.56352       -0.93112
B          1.55860       -0.47997       -0.73393
B         -1.15355        0.86345       -1.07257
B          0.26405        3.92655       -0.32604
B          4.48457       -1.21303       -0.82585
B         -0.43163        2.43046       -0.85797
B          4.77403        0.42328       -0.02091
B          1.74826        3.85555       -0.04530
B         -1.30247        3.69716       -0.21788
B         -2.09570        2.28938       -0.70051
B         -3.55345        2.01770        0.12058
B         -0.90905       -2.18685       -1.45346
B         -2.54398       -2.27489       -1.17732
B         -3.38047       -0.89008       -0.63624
B         -4.12886        0.41961        0.24154
B         -4.43808       -1.22094        0.75494
B         -4.10919       -2.47781       -0.18005
B         -3.05253       -3.55785       -0.07511
B         -1.54888       -3.32396       -0.02203
B         -2.64595       -1.93236        0.70959
B          0.48986       -2.02056        1.49437
B         -1.06313       -1.98667        1.17671
B          1.57537       -2.41341       -0.04593
B          1.67539       -0.96573        1.11721
B          2.97168       -1.55322       -0.05724
B          0.03793       -2.96955        0.02478
B          2.26473        1.18242       -0.92100
B         -2.80100        0.74002       -0.80535
B          0.68063       -1.95010       -1.43376
B         -2.72721        3.44772        0.52687
B          5.76880       -1.04541        0.08811
B          4.26335       -1.06676        0.97069
B          2.96643       -0.05878        1.44339
B          4.39578        0.53549        1.76908
B          5.74396       -0.17644        1.32253
B         -1.61471       -0.77146       -0.47701
B          0.07623       -1.01546        0.19459
B          0.57424        1.07143       -1.19440
B         -3.88763        2.96121        1.34905
B         -4.62513        1.54707        1.44864
B         -4.97835        0.05271        1.50959
B         -0.15131       -0.46348       -1.46522
