45
isomer_0337.log	Energy: -113170.7238002
B          2.57288       -1.60409        0.38586
B          2.57821       -3.28787       -0.08115
B          1.20132       -4.12615       -0.25676
B         -0.27159       -3.39374        0.42347
B          1.10838       -1.00348        0.63750
B         -1.69694       -0.81576        0.86079
B         -1.62579       -4.09051       -0.36995
B          3.92021       -0.79049        0.12614
B         -1.71880       -2.51605        0.38619
B          3.91326       -2.41043       -0.25699
B         -0.22384       -4.66168       -0.54728
B         -3.03946       -3.27725       -0.32581
B         -3.09652       -1.70894        0.19439
B         -4.49127       -0.82713       -0.24296
B         -0.50177        1.94807        1.10383
B         -1.81971        2.59608        0.35120
B         -3.16713        1.75437        0.22040
B         -4.54280        0.85303       -0.09958
B         -4.46521        2.45221       -0.69965
B         -3.10403        3.32444       -0.37575
B         -1.71791        4.15553       -0.44654
B         -0.33239        3.40002        0.44314
B         -0.28271        4.64844       -0.54769
B          2.47569        3.30784        0.04513
B          1.08142        4.02473       -0.18184
B          2.63182        1.74982        0.43134
B          3.95729        2.55136       -0.15971
B          3.93875        0.92028        0.18687
B          1.10946        2.31569        0.63841
B          1.18378       -2.61868        0.44393
B         -3.18460        0.00968        0.52833
B          1.87458        0.38128        0.53381
B         -4.43130       -2.48896       -0.64074
B          5.22301       -1.61815       -0.77409
B          5.15933        0.06048       -0.49713
B          5.22113        1.76898       -0.70127
B          6.29418        0.83392       -1.34245
B          6.29421       -0.67330       -1.37621
B         -1.70454        0.85390        0.83893
B          0.64728       -0.70863        2.06354
B         -0.31788       -1.73845        1.06079
B         -5.61224       -1.59455       -1.05333
B         -5.77538       -0.04414       -1.07899
B         -5.53617        1.49303       -1.17410
B          0.27375        0.59526        1.32598
