45
isomer_3370.log	Energy: -113429.1833861
B          2.50145        1.70638       -0.60448
B          2.42465        3.30305        0.05949
B          1.00540        4.04680        0.27971
B         -0.40692        3.37226       -0.40038
B          1.05720        0.86160       -1.01249
B         -1.70532        0.81249       -0.73837
B         -1.80952        4.08245        0.31994
B          3.90643        0.95009       -0.41205
B         -1.81543        2.47902       -0.45803
B          3.81080        2.56751        0.14754
B         -0.41381        4.64054        0.55664
B         -3.19533        3.24391        0.17958
B         -3.22058        1.65750       -0.26747
B         -4.65765        0.78839       -0.05275
B         -0.37207       -1.71072       -1.13741
B         -1.68258       -2.47518       -0.30598
B         -3.11180       -1.68469       -0.16771
B         -4.57455       -0.85336        0.04819
B         -4.39334       -2.44698        0.68790
B         -2.99698       -3.23319        0.36581
B         -1.57631       -4.01441        0.42324
B         -0.21574       -3.27716       -0.49577
B         -0.16792       -4.43458        0.62762
B          2.60995       -3.32058       -0.25455
B          1.22177       -3.83350        0.20311
B          2.62552       -1.65062       -0.96044
B          3.65278       -2.31452        0.28543
B          3.89086       -0.74199       -0.30907
B          1.18703       -2.52204       -1.14680
B          1.08411        2.57719       -0.57325
B         -3.21463       -0.02436       -0.61244
B          2.38845        0.04423       -1.09169
B         -4.54046        2.44484        0.50857
B          5.12191        1.86830        0.64164
B          5.10532        0.14971        0.35685
B          4.89804       -1.43829        0.91643
B          5.93040       -0.49960        1.59605
B          6.06573        0.99400        1.42830
B         -1.62538       -0.80017       -0.82713
B          1.68870       -2.05677        0.52965
B         -0.36339        1.73382       -0.92797
B         -5.66094        1.50266        0.96101
B         -5.81876       -0.03405        0.98127
B         -5.56690       -1.57109        1.07108
B          0.92984       -0.88889       -0.41887
