45
isomer_3372.log	Energy: -113486.1154540
B         -2.47692        1.68577        0.51515
B         -2.43535        3.35483        0.08021
B         -1.08589        4.22845       -0.00178
B          0.37572        3.52901        0.62814
B         -1.08330        1.13890        0.99783
B          1.59120        0.81375        0.76463
B          1.69770        4.18842       -0.28497
B         -3.85045        0.84186        0.29491
B          1.69711        2.53368        0.41383
B         -3.72990        2.46652       -0.26445
B          0.31696        4.81250       -0.33895
B          3.02260        3.26551       -0.34143
B          3.06725        1.69867        0.13464
B          4.43045        0.77773       -0.32350
B          0.27387       -1.93226        1.17686
B          1.68246       -2.57957        0.57988
B          3.07479       -1.72765        0.27136
B          4.50572       -0.85211       -0.04571
B          4.32722       -2.50459       -0.61411
B          3.01783       -3.33699       -0.13366
B          1.66002       -4.17254       -0.28259
B          0.27972       -3.49469        0.51550
B          0.26650       -4.73970       -0.48720
B         -2.56657       -3.34077        0.01434
B         -1.18206       -4.21807       -0.16168
B         -2.54863       -1.64579        0.48305
B         -3.91230       -2.45135       -0.20919
B         -3.95596       -0.83628        0.30926
B         -1.22717       -2.76569        0.65325
B         -1.13954        2.80727        0.91159
B          3.17385        0.01835        0.54404
B         -2.04964       -0.07978        0.63470
B          4.33987        2.42715       -0.83669
B         -4.89793        1.70535       -0.95310
B         -5.01411        0.05014       -0.61877
B         -5.02404       -1.64329       -0.89577
B         -6.03469       -0.68055       -1.61833
B         -5.98413        0.81326       -1.63579
B          1.63233       -0.82856        0.68768
B         -1.10002       -1.11689        1.25703
B          0.36570        1.88778        1.24645
B          5.44537        1.50551       -1.30720
B          5.60703       -0.03965       -1.27641
B          5.35196       -1.57198       -1.21670
B          0.09531        0.00837        0.73365
