45
isomer_3374.log	Energy: -112068.9714848
B          2.58539        1.73537       -0.48113
B          2.57056        3.37015       -0.08759
B          1.16085        4.19109        0.16853
B         -0.29429        3.35599       -0.38175
B          1.12905        0.83864       -0.78747
B         -1.74614        0.85435       -0.85933
B         -1.68526        4.12879        0.31990
B          4.04873        0.86806       -0.42146
B         -1.67236        2.45442       -0.28594
B          3.98279        2.55594        0.04945
B         -0.26313        4.79841        0.45820
B         -3.11283        3.27449        0.33396
B         -3.13383        1.65763       -0.24564
B         -4.58712        0.83345        0.25109
B         -0.29943       -1.69398       -0.95339
B         -1.67556       -2.40114       -0.32654
B         -3.13598       -1.60321       -0.27291
B         -4.58819       -0.78553        0.23756
B         -4.42049       -2.34528        0.46896
B         -3.11712       -3.22956        0.27958
B         -1.69068       -4.08539        0.25122
B         -0.29868       -3.30280       -0.43743
B         -0.26943       -4.75910        0.37828
B          2.56614       -3.32566       -0.14358
B          1.15535       -4.14891        0.09879
B          2.58314       -1.68455       -0.50973
B          3.97945       -2.51571        0.00705
B          4.04762       -0.82029       -0.43558
B          1.15172       -2.50656       -0.67253
B          1.15506        2.56188       -0.63015
B         -3.22003        0.13058       -0.65467
B          1.12799       -0.78090       -0.80101
B         -4.41736        2.38889        0.50854
B          5.30888        1.74618        0.54051
B          5.30383        0.11703        0.29297
B          5.30660       -1.71603        0.51156
B          6.47537       -0.76702        1.11624
B          6.47639        0.78565        1.12922
B         -1.74723       -0.79161       -0.87309
B          1.23280       -0.89920        2.02566
B         -0.29716        1.75602       -0.92454
B         -5.92541        1.67701        0.72387
B         -6.12129       -0.03659        0.77547
B         -5.92463       -1.76668        0.76567
B          0.29590       -0.11432       -0.50682
