45
isomer_3375.log	Energy: -113412.5591009
B          2.52224        1.75787       -0.55327
B          2.41762        3.40116       -0.12058
B          1.00198        4.15562        0.08001
B         -0.40305        3.38747       -0.56215
B          1.16762        0.83239       -0.94991
B         -1.78764        0.82177       -1.02262
B         -1.80873        4.10766        0.23699
B          3.98116        1.03375       -0.30351
B         -1.84525        2.51734       -0.57716
B          3.77468        2.59967        0.22156
B         -0.40568        4.69025        0.37247
B         -3.14346        3.24460        0.22085
B         -3.23274        1.69627       -0.34066
B         -4.54024        0.74515        0.15060
B         -0.18754       -1.76155       -1.06983
B         -1.46887       -2.48404       -0.38232
B         -2.98700       -1.75853       -0.16080
B         -4.40977       -0.89149        0.29062
B         -4.11066       -2.45854        0.92434
B         -2.75827       -3.23192        0.43372
B         -1.32675       -3.98901        0.32840
B         -0.12238       -3.50239       -1.01558
B          0.07642       -4.51577        0.36270
B          2.42082       -2.98380        0.05515
B          1.41995       -4.11757       -0.15843
B          2.67033       -1.47238       -0.64777
B          3.82000       -2.12666        0.37665
B          4.00387       -0.63787       -0.31501
B          1.37081       -2.52575       -1.23820
B          1.11725        2.57570       -0.65014
B         -3.26345       -0.04023       -0.59281
B          1.23207       -0.72949       -1.07140
B         -4.45735        2.39995        0.67882
B          4.98667        1.87650        0.87494
B          5.16528        0.21400        0.55523
B          5.08902       -1.44453        0.93707
B          6.12634       -0.49880        1.63846
B          6.06404        0.98503        1.63974
B         -1.67189       -0.82921       -0.92016
B          0.47856       -2.66638        0.40079
B         -0.40737        1.81766       -1.09519
B         -5.48246        1.46633        1.24462
B         -5.55330       -0.08881        1.34789
B         -5.27064       -1.60957        1.42318
B         -0.26226        0.03817       -1.04726
