45
isomer_3376.log	Energy: -113420.5868126
B         -2.67336        1.60182        0.71901
B         -2.70195        3.20352        0.06733
B         -1.35196        4.10723       -0.03931
B          0.12477        3.42861        0.57437
B         -1.21647        0.78948        1.00830
B          1.48249        0.82018        0.13692
B          1.44772        4.18204       -0.40680
B         -3.96969        0.69645        0.25253
B          1.52825        2.59415        0.16631
B         -3.95802        2.28693       -0.11251
B         -0.01162        4.69522       -0.42536
B          2.82069        3.37079       -0.50830
B          2.93289        1.73297       -0.07328
B          4.44860        1.01563       -0.07006
B          0.32829       -1.68315        0.76054
B          1.84838       -2.43973        0.57891
B          3.19598       -1.54766        0.52777
B          4.54613       -0.67758        0.04062
B          4.57106       -2.38144       -0.33154
B          3.21641       -3.18385        0.02793
B          1.88710       -4.07699       -0.12944
B          0.41141       -3.28926        0.23740
B          0.49806       -4.72850       -0.40245
B         -2.38256       -3.35283       -0.29786
B         -0.93978       -4.14029       -0.34208
B         -2.50919       -1.74715        0.27027
B         -3.80472       -2.59072       -0.38603
B         -3.88299       -0.97642       -0.01979
B         -1.11028       -2.55294        0.37024
B         -1.30760        2.52609        0.65745
B          3.14965        0.12063        0.59964
B         -1.19300       -0.79603        0.69742
B          4.20265        2.53497       -0.89570
B         -5.35249        1.45115       -0.45614
B         -5.31918       -0.20307       -0.10579
B         -5.18662       -1.80676       -0.75659
B         -6.30755       -0.88918       -1.24331
B         -6.44435        0.59166       -1.04583
B          1.68143       -0.68821        1.09805
B          0.27584        0.11422        1.61020
B          0.22387        1.76666        0.92068
B          5.33830        1.61645       -1.25403
B          5.67055        0.09242       -1.02792
B          5.61757       -1.44840       -0.88165
B          0.17530       -0.13911       -0.11012
