45
isomer_3378.log	Energy: -112365.8960802
B          2.58613        1.82391       -0.43550
B          2.55749        3.45636       -0.03725
B          1.13993        4.26694        0.21223
B         -0.30316        3.42714       -0.34524
B          1.14532        0.93308       -0.74744
B         -1.73989        0.91122       -0.83581
B         -1.70138        4.18517        0.34916
B          4.05093        0.96259       -0.37373
B         -1.67811        2.51597       -0.25860
B          3.96835        2.64456        0.10260
B         -0.28375        4.85612        0.49401
B         -3.12176        3.32298        0.35574
B         -3.13426        1.70862       -0.22555
B         -4.58457        0.87173        0.26266
B         -0.29328       -1.64101       -0.92913
B         -1.66303       -2.35331       -0.30512
B         -3.12059       -1.56140       -0.25672
B         -4.57387       -0.74947        0.24689
B         -4.40739       -2.31118        0.48180
B         -3.08933       -3.18943        0.29440
B         -1.66333       -4.03581        0.27334
B         -0.27512       -3.24800       -0.41053
B         -0.23349       -4.70069        0.40645
B          2.60917       -3.24894       -0.10733
B          1.20728       -4.10251        0.13094
B          2.62609       -1.59753       -0.47354
B          4.01432       -2.41827        0.04703
B          4.06641       -0.72949       -0.39194
B          1.19468       -2.43337       -0.64049
B          1.15586        2.64435       -0.58790
B         -3.21193        0.17452       -0.63677
B          1.18777       -0.69057       -0.76512
B         -4.43104        2.43448        0.52771
B          5.29392        1.84400        0.59534
B          5.30456        0.21332        0.34312
B          5.32311       -1.60983        0.55602
B          6.47087       -0.65596        1.16487
B          6.46349        0.88940        1.18440
B         -1.73486       -0.74263       -0.85239
B          0.75862       -3.14459        0.82825
B         -0.28987        1.83027       -0.89039
B         -5.91699        1.69508        0.73026
B         -6.09854       -0.00258        0.77586
B         -5.89536       -1.71553        0.76525
B          0.32059       -0.72973       -0.62185
