45
isomer_0338.log	Energy: -113437.9262038
B         -2.59559       -1.58368       -0.33853
B         -1.44125       -4.12951       -0.20988
B         -0.39136       -5.10459       -0.44756
B          0.30506       -3.50498       -0.28760
B         -1.07805       -0.74637       -0.61067
B          1.65763       -0.76746       -0.37611
B          2.04985       -4.05925        0.32450
B         -4.05101       -0.70735       -0.30842
B          1.72047       -2.44572        0.04811
B         -4.04776       -2.33059        0.15077
B          0.94223       -5.04012        0.06517
B          3.24417       -3.12102        0.41586
B          3.17614       -1.52162        0.00621
B          4.65257       -0.67789        0.00666
B          0.34331        1.74816       -0.77103
B          1.75854        2.58286       -0.37862
B          3.18673        1.78748       -0.26558
B          4.66295        0.99330       -0.22210
B          4.52902        2.67520        0.33070
B          3.14839        3.43925        0.04334
B          1.75929        4.25921        0.15387
B          0.34035        3.45850       -0.41790
B          0.33882        4.86086        0.32022
B         -2.47434        3.43589        0.03839
B         -1.06440        4.25651        0.13198
B         -2.54479        1.84690       -0.43130
B         -3.90720        2.66377        0.18160
B         -4.00868        1.04105       -0.28231
B         -1.12506        2.62018       -0.52700
B         -1.17932       -2.46043       -0.42781
B          3.19897        0.09369       -0.53483
B         -1.07238        0.88147       -0.74233
B          4.60205       -2.24188        0.67854
B         -5.34194       -1.50023        0.55989
B         -5.36089        0.20022        0.25388
B         -5.24154        1.89214        0.60062
B         -6.38317        0.97871        1.20087
B         -6.43271       -0.53857        1.17832
B          1.66730        0.86306       -0.51455
B         -2.67786       -3.17487        0.00034
B          0.32366       -1.72200       -0.47613
B          5.76552       -1.31064        0.95246
B          5.92672        0.23883        0.78041
B          5.67863        1.75590        0.75496
B         -2.55907        0.11559       -0.60738
