45
isomer_3381.log	Energy: -113422.6038878
B         -2.70103       -1.70401       -1.07332
B         -2.46136       -3.17290        0.21276
B         -1.08167       -3.93012        0.19037
B          0.30042       -3.34951       -0.63072
B         -1.17688       -0.82134       -0.69866
B          1.74594       -0.82013       -0.74362
B          1.74542       -4.06489        0.22134
B         -3.88965       -0.86426       -0.39980
B          1.76634       -2.51118       -0.49347
B         -3.63506       -2.23614        0.65740
B          0.32412       -4.50084        0.48173
B          3.13081       -3.26851        0.13831
B          3.21747       -1.67416       -0.32904
B          4.64555       -0.80050       -0.05947
B          0.28858        1.74712       -0.96681
B          1.70521        2.54657       -0.28347
B          3.11977        1.73739       -0.12465
B          4.55859        0.87082        0.14779
B          4.40805        2.50683        0.72645
B          3.03471        3.33203        0.33846
B          1.60501        4.12723        0.34114
B          0.25939        3.39715       -0.50019
B          0.15679        4.67138        0.44270
B         -2.60174        3.36588       -0.20353
B         -1.23907        4.13014        0.03961
B         -2.59739        1.66468       -0.55371
B         -3.96745        2.49485       -0.01946
B         -3.98668        0.86309       -0.37240
B         -1.24240        2.55331       -0.71047
B         -1.30210       -2.54847       -0.88378
B          3.28687        0.03327       -0.63131
B         -1.18976        0.86009       -0.80926
B          4.46348       -2.44064        0.56211
B         -5.05323       -1.60374        0.82981
B         -5.22622       -0.01816        0.29689
B         -5.11012        1.67002        0.65753
B         -6.10697        0.69112        1.43589
B         -6.22925       -0.77612        1.36545
B          1.74361        0.87625       -0.71051
B         -2.15638       -1.48510        0.51475
B          0.35625       -1.71468       -1.03767
B          5.52821       -1.49526        1.08346
B          5.73929        0.04028        1.09572
B          5.54251        1.59450        1.16023
B          0.28203        0.02668       -0.70458
