45
isomer_3383.log	Energy: -113670.7859900
B          2.46598        1.79547       -0.47352
B          2.33934        3.34129        0.09649
B          0.94068        4.14249        0.13700
B         -0.42608        3.36389       -0.51852
B          1.09248        0.85870       -1.06281
B         -1.80663        0.79945       -0.92643
B         -1.82801        4.11610        0.24188
B          3.86867        0.95424       -0.02734
B         -1.84702        2.49841       -0.51199
B          3.71523        2.57181        0.40140
B         -0.44685        4.71841        0.35924
B         -3.15274        3.24602        0.23420
B         -3.19321        1.64388       -0.27967
B         -4.53288        0.74775        0.22568
B         -0.29165       -1.83690       -1.04869
B         -1.68340       -2.58288       -0.39798
B         -3.10281       -1.76530       -0.23328
B         -4.53062       -0.93481        0.13182
B         -4.29009       -2.53576        0.76446
B         -2.96900       -3.37764        0.28309
B         -1.57089       -4.18313        0.31119
B         -0.21604       -3.40084       -0.50917
B         -0.13668       -4.73043        0.40654
B          2.58184       -3.26887        0.04239
B          1.23789       -4.12286        0.12342
B          2.58427       -1.68953       -0.51660
B          3.94010       -2.42952        0.25264
B          3.98820       -0.78615       -0.20973
B          1.21432       -2.55324       -0.74711
B          1.05452        2.58791       -0.74796
B         -3.28571       -0.05541       -0.62111
B          1.16267       -0.84768       -1.06280
B         -4.43873        2.39461        0.72357
B          5.02244        1.79345        0.90501
B          5.25892        0.12046        0.41489
B          5.21518       -1.58148        0.72824
B          6.26080       -0.63662        1.41013
B          6.15136        0.87779        1.51955
B         -1.70514       -0.86523       -0.77043
B          2.57550        0.04271       -0.70863
B         -0.40503        1.81262       -1.12346
B         -5.49641        1.46967        1.27439
B         -5.62097       -0.08187        1.27940
B         -5.34223       -1.60776        1.33841
B         -0.35157       -0.02323       -1.10779
