45
isomer_3387.log	Energy: -113439.3886718
B         -2.44496       -1.74024       -0.42797
B         -2.59114       -3.18238        0.81408
B         -1.28786       -4.04737        0.86727
B         -0.02122       -3.24305       -0.36988
B         -1.25693       -0.65703       -1.02609
B          1.71229       -0.77204       -1.02596
B          1.45988       -3.95265        0.27023
B         -3.74565       -0.71941       -0.11082
B          1.60805       -2.47725       -0.57254
B         -3.68718       -2.14453        0.64830
B          0.14194       -4.46395        0.72461
B          2.89837       -3.23550        0.15305
B          3.06686       -1.70265       -0.35122
B          4.42852       -0.84608        0.20036
B          0.36476        1.87327       -0.95516
B          1.79534        2.55490       -0.41227
B          3.18551        1.71911       -0.15980
B          4.63055        0.79383       -0.04534
B          4.44927        2.42063        0.70922
B          3.13029        3.28365        0.37938
B          1.74851        4.13601        0.46780
B          0.37217        3.40785       -0.28888
B          0.35278        4.72776        0.60856
B         -2.44775        3.39145        0.09193
B         -1.07929        4.16426        0.30138
B         -2.49831        1.74114       -0.53270
B         -3.85270        2.62746        0.04695
B         -3.82833        0.96885       -0.21697
B         -1.14338        2.64970       -0.57273
B         -1.76415       -3.41538       -0.56303
B          3.26430        0.01461       -0.67228
B         -1.15810        0.94191       -1.06419
B          4.32532       -2.50647        0.57348
B         -5.12389       -1.36123        0.76445
B         -5.21071        0.16604        0.11120
B         -5.17598        1.86909        0.44423
B         -6.21203        0.96708        1.14688
B         -6.29405       -0.51817        1.18588
B          1.75351        0.87935       -0.72134
B          0.25937        0.07898       -0.98716
B          0.30932       -1.66705       -1.31269
B          5.48627       -1.68027        1.06205
B          5.70170       -0.12846        1.09719
B          5.49268        1.40286        1.15699
B         -1.11395       -2.31863       -1.43648
