45
isomer_3390.log	Energy: -113498.3419728
B         -2.36531        1.55042       -0.14205
B         -2.45890        3.29957       -0.16873
B         -1.07040        4.10546       -0.26822
B          0.36849        3.36359        0.35231
B         -1.02070        0.81472        0.69586
B          1.73720        0.81013        0.77584
B          1.76372        4.14130       -0.27290
B         -3.83788        0.89109        0.37197
B          1.78720        2.48759        0.39820
B         -3.84192        2.49935       -0.27786
B          0.37250        4.72682       -0.45469
B          3.15571        3.28355       -0.16913
B          3.23230        1.72015        0.30600
B          4.66652        0.82951        0.09285
B          0.37972       -1.70875        0.85286
B          1.78683       -2.48766        0.39758
B          3.23207       -1.72041        0.30621
B          4.66599       -0.82960        0.09144
B          4.53209       -2.47078       -0.49627
B          3.15539       -3.28370       -0.16935
B          1.76325       -4.14102       -0.27373
B          0.36819       -3.36372        0.35279
B          0.37204       -4.72682       -0.45451
B         -2.45913       -3.29935       -0.16862
B         -1.07081       -4.10524       -0.26845
B         -2.36556       -1.55017       -0.14205
B         -3.84241       -2.49929       -0.27698
B         -3.83819       -0.89093        0.37254
B         -1.11376       -2.56826        0.44033
B         -1.11358        2.56846        0.44055
B          3.27067       -0.00012        0.67917
B         -1.02066       -0.81453        0.69573
B          4.53195        2.47032       -0.49677
B         -5.18933        1.70584       -0.44435
B         -5.12496        0.00019       -0.25654
B         -5.18994       -1.70578       -0.44315
B         -6.44146       -0.76544       -0.70151
B         -6.44143        0.76569       -0.70132
B          1.73719       -0.81033        0.77641
B         -2.54297       -0.00018        1.11380
B          0.37989        1.70862        0.85255
B          5.66897        1.54334       -0.91285
B          5.86353       -0.00026       -0.88777
B          5.66854       -1.54381       -0.91404
B         -2.11066        0.00040       -0.60314
