45
isomer_3391.log	Energy: -112704.5759313
B          2.50586        1.89410       -0.45351
B          2.44629        3.52102       -0.04718
B          1.03119        4.29812        0.20980
B         -0.39622        3.44432       -0.33999
B          1.08755        0.98379       -0.76944
B         -1.79498        0.90341       -0.83530
B         -1.79736        4.17105        0.36222
B          3.97479        1.07694       -0.40001
B         -1.75749        2.51432       -0.25058
B          3.85752        2.73815        0.07829
B         -0.39113        4.84985        0.49790
B         -3.20048        3.29166        0.37025
B         -3.19673        1.68355       -0.21558
B         -4.63539        0.81413        0.26255
B         -0.33178       -1.60034       -0.93205
B         -1.68295       -2.37505       -0.32400
B         -3.14128       -1.60101       -0.27639
B         -4.59863       -0.81312        0.22679
B         -4.42161       -2.38361        0.45162
B         -3.08050       -3.24294        0.25591
B         -1.66295       -4.06946        0.22816
B         -0.28959       -3.25619       -0.43323
B         -0.24566       -4.70477        0.35374
B          2.69597       -3.16763       -0.12058
B          1.17515       -4.10801        0.11704
B          2.61768       -1.49779       -0.47913
B          4.04454       -2.27181        0.01299
B          4.03770       -0.60696       -0.42131
B          1.17119       -2.41545       -0.65183
B          1.07215        2.68671       -0.59416
B         -3.25346        0.13669       -0.63728
B          1.12807       -0.57754       -0.79422
B         -4.51301        2.39044        0.54487
B          5.19890        1.97699        0.55827
B          5.24998        0.34982        0.29972
B          5.31704       -1.45192        0.50032
B          6.43145       -0.48107        1.09599
B          6.39244        1.04557        1.13009
B         -1.77071       -0.75108       -0.85816
B          2.13138       -3.81297        0.79060
B         -0.35764        1.84859       -0.89557
B         -5.95844        1.59222        0.73001
B         -6.10636       -0.08070        0.75441
B         -5.88703       -1.76422        0.72538
B          0.90457       -1.17780        0.17255
