45
isomer_3392.log	Energy: -112115.6411612
B          2.55687        1.75596       -0.54016
B          2.53982        3.38814       -0.13604
B          1.12934        4.20366        0.13281
B         -0.32649        3.36822       -0.41511
B          1.10130        0.85733       -0.84454
B         -1.77427        0.86583       -0.90107
B         -1.71575        4.13279        0.29885
B          4.02279        0.89220       -0.49382
B         -1.70166        2.46238       -0.31780
B          3.95491        2.57683       -0.01172
B         -0.29467        4.80530        0.43391
B         -3.14097        3.27461        0.31498
B         -3.16079        1.66145       -0.27489
B         -4.60925        0.83023        0.22423
B         -0.32137       -1.67797       -1.01917
B         -1.69229       -2.39281       -0.38961
B         -3.15450       -1.59914       -0.32311
B         -4.60612       -0.78863        0.20029
B         -4.43308       -2.34938        0.42077
B         -3.12841       -3.22895        0.21881
B         -1.69990       -4.08076        0.17738
B         -0.31364       -3.29007       -0.51357
B         -0.27622       -4.75149        0.29258
B          2.55275       -3.30716       -0.23506
B          1.14544       -4.13571        0.00948
B          2.56347       -1.66370       -0.59074
B          3.96469       -2.49443       -0.08672
B          4.02605       -0.79603       -0.51879
B          1.13338       -2.48846       -0.75123
B          1.12360        2.57958       -0.67628
B         -3.24514        0.13683       -0.69326
B          1.10442       -0.76208       -0.86849
B         -4.44222        2.38443        0.49077
B          5.28571        1.76748        0.46708
B          5.28364        0.13995        0.20911
B          5.29240       -1.69447        0.41589
B          6.46186       -0.74624        1.02046
B          6.45886        0.80631        1.04342
B         -1.77110       -0.78001       -0.92541
B          1.24462       -0.86389        3.36737
B         -0.32803        1.77177       -0.96816
B         -5.94722        1.66717        0.70951
B         -6.13831       -0.04725        0.75113
B         -5.93714       -1.77671        0.72916
B          1.21261       -0.61308        0.56678
