45
isomer_3393.log	Energy: -112533.1437399
B          2.57161        1.71003       -0.52116
B          2.56154        3.34350       -0.12188
B          1.17956        4.16558        0.12583
B         -0.26992        3.35219       -0.41548
B          1.11180        0.86293       -0.83247
B         -1.70782        0.83922       -0.89406
B         -1.64624        4.11478        0.28031
B          3.99752        0.84690       -0.44776
B         -1.65275        2.46057       -0.31768
B          3.93108        2.50602        0.01632
B         -0.22044        4.74581        0.40753
B         -3.06751        3.26601        0.29853
B         -3.09687        1.65827       -0.27317
B         -4.54092        0.81796        0.21706
B         -0.27379       -1.69800       -0.99238
B         -1.64730       -2.41164       -0.36229
B         -3.08851       -1.61898       -0.30660
B         -4.52974       -0.79575        0.20005
B         -4.38994       -2.36788        0.44895
B         -3.04966       -3.23427        0.24381
B         -1.64102       -4.07963        0.21824
B         -0.26041       -3.30866       -0.46807
B         -0.24284       -4.71247        0.33493
B          2.55711       -3.31586       -0.16453
B          1.18949       -4.12695        0.06514
B          2.59425       -1.66889       -0.54352
B          3.94922       -2.47683       -0.01152
B          4.00429       -0.83768       -0.45529
B          1.19234       -2.51362       -0.70363
B          1.17995        2.55377       -0.66536
B         -3.18106        0.10584       -0.68102
B          1.13574       -0.79723       -0.85709
B         -4.41081        2.40244        0.49240
B          5.22443        1.71946        0.51856
B          5.22463        0.08546        0.27620
B          5.22776       -1.69382        0.49529
B          6.35092       -0.75621        1.09922
B          6.37053        0.75679        1.11803
B         -1.70640       -0.81137       -0.91060
B          0.59977       -0.59380        2.73602
B         -0.27342        1.74576       -0.95664
B         -5.82035        1.60977        0.68247
B         -5.99070       -0.03837        0.72328
B         -5.79672       -1.67976        0.71052
B          0.35159       -0.13137        0.19350
