45
isomer_3394.log	Energy: -113196.2296041
B         -2.82898        1.58189        0.57067
B         -2.80894        3.11186       -0.24802
B         -1.46401        3.88520       -0.54314
B          0.00657        3.13311       -0.06256
B         -1.31113        0.74471        0.86639
B          1.56635        0.75826        0.63937
B          1.39526        3.95945       -0.53121
B         -4.23873        0.79451        0.54483
B          1.51177        2.43671        0.24287
B         -4.14555        2.32712       -0.11840
B         -0.07473        4.48818       -0.82466
B          2.82455        3.29981       -0.23459
B          3.04524        1.77242        0.41029
B          4.53997        1.02787        0.51759
B          0.43305       -0.96133        0.34098
B          1.68116       -2.19391       -0.37751
B          3.07205       -1.52529        0.26801
B          4.60373       -0.63064        0.14610
B          4.59831       -2.18600       -0.56384
B          3.22248       -3.03058       -0.48512
B          1.93443       -3.86620       -0.51106
B          0.43951       -3.06529        0.47842
B          0.47844       -4.05625       -0.87874
B         -2.39384       -3.03193       -0.44350
B         -0.96620       -3.61275       -0.73343
B         -2.58623       -1.64908        0.56737
B         -3.82791       -2.42917       -0.27740
B         -4.02581       -0.92399        0.36527
B         -1.05916       -2.25614        0.16520
B         -1.37419        2.25642        0.21721
B          3.20479        0.08046        0.92816
B         -1.21606       -0.85070        1.11283
B          4.27222        2.62145       -0.38196
B         -5.58052        1.45354       -0.25271
B         -5.48614       -0.18116        0.15438
B         -5.29357       -1.81612       -0.43389
B         -6.48186       -0.95551       -0.91171
B         -6.67127        0.51081       -0.79844
B          1.85403       -0.87800        1.34351
B          0.19108       -1.89371        1.64386
B          0.06923        1.53817        0.62742
B          5.41282        1.71405       -0.75006
B          5.81707        0.27430       -0.61665
B          5.79709       -1.28781       -0.69305
B          1.86367       -0.48876       -0.47910
