45
isomer_3395.log	Energy: -113383.9617035
B          2.22986       -1.40085        0.52608
B          2.24424       -3.00792       -0.52298
B          0.96331       -3.81547       -0.79885
B         -0.48925       -3.52529        0.22547
B          0.84131       -1.01841        1.19834
B         -1.74348       -0.81261        1.07389
B         -1.86181       -3.81410       -0.80648
B          3.80109       -0.87693        0.23672
B         -1.88226       -2.46733        0.28335
B          3.55008       -2.22542       -0.42545
B         -0.45663       -4.24796       -1.18862
B         -3.24529       -3.00669       -0.50183
B         -3.17853       -1.50872        0.19451
B         -4.45164       -0.48208       -0.20944
B         -0.08937        1.67900        0.81639
B         -1.43239        2.48374        0.14086
B         -2.94907        1.86683        0.27053
B         -4.48627        1.13745        0.18162
B         -4.19256        2.73508       -0.53138
B         -2.73135        3.39836       -0.39021
B         -1.25736        4.05743       -0.56805
B          0.09393        3.22622        0.23377
B          0.19245        4.39519       -0.86112
B          2.85960        2.97059       -0.30470
B          1.58136        3.74108       -0.55475
B          2.78896        1.26399        0.50174
B          4.16249        2.21886       -0.12832
B          4.31700        0.79326        0.56834
B          1.43560        2.14070        0.13519
B          0.91730       -2.51640        0.31202
B         -3.17206        0.16806        0.68578
B          1.34537        0.53578        0.73154
B         -4.59943       -2.11240       -0.66062
B          5.00608       -1.71853       -0.69243
B          5.40397       -0.20505        0.02358
B          5.59784        1.43176       -0.28795
B          6.54442        0.48023       -0.98000
B          6.28421       -0.97139       -1.16407
B         -1.59119        0.85194        0.66349
B         -0.28875        0.28011        1.64729
B         -0.56254       -2.20282        1.35262
B         -5.71936       -1.14640       -0.94016
B         -5.76896        0.40544       -0.88098
B         -5.38533        1.88683       -0.92699
B         -0.62558       -1.06516        2.32226
