45
isomer_3396.log	Energy: -113416.5659842
B          2.51547       -1.70884        0.36135
B          2.40556       -3.32619       -0.22633
B          0.98203       -4.10292       -0.32533
B         -0.38202       -3.31379        0.30748
B          1.16865       -0.82369        0.80363
B         -1.71349       -0.72630        1.12459
B         -1.83534       -4.07256       -0.20419
B          3.91078       -0.96572        0.09127
B         -1.82774       -2.45672        0.56371
B          3.79880       -2.55331       -0.31435
B         -0.44597       -4.69893       -0.46204
B         -3.17258       -3.19293       -0.05894
B         -3.18323       -1.58550        0.48940
B         -4.50414       -0.70309       -0.09611
B         -0.22980        1.76968        0.98854
B         -1.54343        2.55855        0.22713
B         -2.96947        1.75308        0.08866
B         -4.44817        0.98538       -0.10066
B         -4.20500        2.54839       -0.83072
B         -2.85230        3.37492       -0.40226
B         -1.47454        4.17236       -0.34856
B         -0.14169        3.41770        0.56825
B         -0.02313        4.68682       -0.42382
B          2.66811        3.22180        0.00832
B          1.33255        4.09686       -0.08202
B          2.64790        1.58514        0.64455
B          3.94677        2.32033       -0.16750
B          3.98604        0.74291        0.24032
B          1.30260        2.51429        0.63924
B          1.12827       -2.56763        0.49224
B         -3.16751        0.09528        0.62106
B          1.20238        0.78784        0.95347
B         -4.50952       -2.38754       -0.47758
B          5.17605       -1.76699       -0.74825
B          5.30565       -0.15901       -0.18296
B          5.31294        1.49495       -0.56471
B          6.36838        0.61340       -1.20569
B          6.27196       -0.87879       -1.32203
B         -1.49798        0.79405        0.22969
B         -0.28190        0.11173        1.65514
B         -0.33556       -1.72414        0.93288
B         -5.56199       -1.45923       -1.02656
B         -5.62601        0.09532       -1.13127
B         -5.30490        1.62081       -1.28405
B         -0.19350       -0.18778       -0.04496
