45
isomer_3397.log	Energy: -110109.7968774
B         -2.58774       -1.65376       -0.49250
B         -2.58825       -3.29208       -0.11366
B         -1.18635       -4.12831        0.13568
B          0.27675       -3.30182       -0.40642
B         -1.12300       -0.76784       -0.79012
B          1.75196       -0.80955       -0.86084
B          1.66015       -4.09374        0.28887
B         -4.04302       -0.77351       -0.42568
B          1.66307       -2.41395       -0.30190
B         -3.99296       -2.46608        0.03007
B          0.23180       -4.75138        0.42051
B          3.09555       -3.25287        0.31124
B          3.13183       -1.63112       -0.25379
B          4.59243       -0.82495        0.25098
B          0.32896        1.75282       -0.93262
B          1.71125        2.44154       -0.29883
B          3.16419        1.62966       -0.25173
B          4.60850        0.79402        0.25200
B          4.45512        2.35311        0.49735
B          3.16010        3.25109        0.31535
B          1.74167        4.12031        0.29406
B          0.34284        3.35688       -0.40221
B          0.32665        4.80600        0.42654
B         -2.52180        3.40364       -0.10943
B         -1.10358        4.21157        0.14095
B         -2.55380        1.76611       -0.49034
B         -3.94263        2.60550        0.03327
B         -4.02626        0.91483       -0.42461
B         -1.11474        2.57625       -0.64511
B         -1.16504       -2.49211       -0.64831
B          3.23239       -0.10132       -0.64902
B         -1.10693        0.85167       -0.78909
B          4.40814       -2.38100        0.49436
B         -5.31175       -1.64852        0.52780
B         -5.29148       -0.01733        0.29492
B         -5.27739        1.81364        0.52999
B         -6.45521        0.87010        1.12559
B         -6.47062       -0.68254        1.12461
B          1.76830        0.83640       -0.85980
B         -1.51041       -0.47278        1.96565
B          0.29472       -1.69713       -0.93480
B          5.92260       -1.68509        0.71675
B          6.13431        0.02610        0.78384
B          5.95369        1.75795        0.78951
B         -0.58398       -0.80041       -0.66906
