45
isomer_0034.log	Energy: -113435.3364842
B          2.45803       -1.71382        0.42250
B          2.64185       -3.17158       -0.81288
B          1.33875       -4.02681       -0.86816
B          0.06806       -3.23298        0.36277
B          1.25691       -0.64500        0.99141
B         -1.71071       -0.79108        1.02193
B         -1.41662       -3.95502       -0.29692
B          3.76205       -0.70332        0.11792
B         -1.56894       -2.48309        0.53245
B          3.74072       -2.14752       -0.60076
B         -0.08116       -4.45888       -0.73648
B         -2.86162       -3.25034       -0.17465
B         -3.05362       -1.72333        0.35173
B         -4.43325       -0.87567       -0.18478
B         -0.38697        1.85753        0.90315
B         -1.84266        2.51432        0.37627
B         -3.22859        1.68482        0.19790
B         -4.65792        0.75958        0.07812
B         -4.50577        2.38444       -0.66705
B         -3.17395        3.25487       -0.36680
B         -1.78002        4.12241       -0.45056
B         -0.40566        3.40190        0.27435
B         -0.39440        4.74223       -0.60716
B          2.41558        3.43270       -0.11586
B          1.03554        4.18314       -0.31833
B          2.47962        1.79102        0.47699
B          3.81585        2.67030       -0.09341
B          3.82007        1.00490        0.19882
B          1.11132        2.65369        0.56274
B          1.81098       -3.38116        0.55674
B         -3.27500       -0.01925        0.69688
B          1.15125        0.95462        1.02434
B         -4.30675       -2.52887       -0.57233
B          5.16145       -1.34927       -0.71751
B          5.19933        0.19601       -0.08740
B          5.16792        1.89266       -0.43980
B          6.25120        0.99854       -1.07748
B          6.33120       -0.48345       -1.10678
B         -1.77530        0.84948        0.70065
B          1.13707       -2.29736        1.43888
B         -0.29621       -1.67728        1.27430
B         -5.46891       -1.70665       -1.07204
B         -5.73812       -0.16205       -1.05170
B         -5.54295        1.36889       -1.10742
B         -0.24969        0.06570        0.96541
