45
isomer_0340.log	Energy: -113441.9535728
B         -2.45239        1.82224        0.46837
B         -2.37626        3.45030       -0.11111
B         -0.98219        4.21575       -0.28146
B          0.43895        3.42743        0.33803
B         -1.14815        0.95874        1.03408
B          1.77635        0.86374        0.73403
B          1.83109        4.13061       -0.42606
B         -3.73184        1.01707       -0.01215
B          1.84624        2.55098        0.45421
B         -3.79989        2.68972       -0.15742
B          0.45166        4.75028       -0.56557
B          3.19153        3.24660       -0.35350
B          3.21449        1.68027        0.16723
B          4.64493        0.72996        0.04669
B          0.27816       -1.65360        1.30360
B          1.55407       -2.48700        0.56562
B          3.02644       -1.74232        0.31783
B          4.41373       -0.90550       -0.21065
B          4.26702       -2.56137       -0.59679
B          2.83126       -3.27085       -0.16950
B          1.38297       -3.97865       -0.24534
B         -0.07412       -3.24163        0.39199
B          0.05270       -4.49838       -0.66519
B         -2.65991       -3.19324       -0.79875
B         -1.38232       -4.10310       -0.81454
B         -2.47369       -1.74166        0.39317
B         -3.73760       -2.13601       -0.65239
B         -3.68467       -0.64615       -0.00620
B         -1.81788       -3.42141        0.58889
B         -1.09022        2.68624        0.57298
B          3.25675       -0.02611        0.65643
B         -1.28423       -0.63293        1.02296
B          4.49749        2.36316       -0.69125
B         -5.13047        1.93360       -0.50756
B         -5.17778        0.23543       -0.07841
B         -5.16421       -1.31770       -0.68261
B         -6.37043       -0.47461       -0.99968
B         -6.24701        1.00720       -1.06075
B          1.68447       -0.78782        1.00614
B         -1.16885       -2.28504        1.41885
B          0.39854        1.88287        0.97323
B          5.52069        1.33030       -1.14674
B          5.69676       -0.21024       -1.10521
B          5.44792       -1.75276       -1.08335
B          0.24993        0.09559        0.96784
