45
isomer_3400.log	Energy: -113458.0105712
B         -2.77175       -1.21506       -0.41689
B         -3.43756       -2.71190       -0.99235
B         -1.79933       -2.57300       -1.42572
B         -0.64963       -3.34173       -0.37447
B         -1.66888        0.05563       -0.04965
B          1.31808       -1.10977       -1.13973
B          0.25585       -3.43065        1.13860
B         -3.92053       -0.09379       -0.62100
B          0.86267       -2.49338       -0.23160
B         -4.49212       -1.59714       -0.77793
B         -1.26033       -3.26093        1.19306
B          1.80749       -3.20020        0.99209
B          2.44367       -2.11110       -0.04864
B          4.05601       -1.63403        0.25446
B          0.79325        1.81978       -1.37358
B          2.36715        2.19399       -0.96135
B          3.44416        0.99390       -0.68782
B          4.59234       -0.08541       -0.10957
B          5.00891        1.54065        0.11857
B          3.83573        2.58401       -0.28302
B          2.72290        3.66024       -0.02254
B          1.11486        3.34656       -0.67402
B          1.49630        4.42760        0.46054
B         -1.46582        3.38465        0.66161
B          0.02000        4.06128        0.47897
B         -1.66233        1.77298        0.15776
B         -2.82617        2.72038        0.97372
B         -3.10082        1.00363        0.47314
B         -0.38888        2.69512       -0.44923
B         -1.19169       -1.69859        0.14686
B          3.09978       -0.63438       -0.75701
B         -0.52785        1.03251       -0.83686
B          3.36225       -2.78997        1.28593
B         -5.57245       -0.45945       -0.26313
B         -4.73879        0.88460        0.39267
B         -4.21216        2.08437        1.41311
B         -5.69762        1.59102        1.48502
B         -6.33322        0.53424        0.60985
B          1.80563        0.46987       -1.20959
B         -2.45528       -3.07626        0.20619
B         -0.11564       -0.55039       -0.61650
B          4.74329       -2.23115        1.58288
B          5.50470       -0.97574        1.10093
B          5.89414        0.46691        0.68373
B         -0.26029       -2.04986       -1.48749
