45
isomer_3403.log	Energy: -110498.8131216
B          2.59231        1.77472       -0.41098
B          2.57094        3.41541       -0.04317
B          1.15759        4.23685        0.19021
B         -0.29172        3.38975       -0.35709
B          1.14023        0.86980       -0.71343
B         -1.73442        0.87746       -0.80563
B         -1.68937        4.17005        0.32264
B          4.05718        0.91198       -0.32752
B         -1.66835        2.48646       -0.25684
B          3.98405        2.60684        0.11646
B         -0.26978        4.84518        0.46039
B         -3.11503        3.31264        0.34008
B         -3.12823        1.68687       -0.21430
B         -4.58308        0.86705        0.28509
B         -0.28123       -1.66854       -0.84971
B         -1.66010       -2.36914       -0.22152
B         -3.12269       -1.57398       -0.19058
B         -4.58033       -0.75194        0.29687
B         -4.41067       -2.30747        0.55380
B         -3.10397       -3.19146        0.38739
B         -1.67540       -4.04418        0.38239
B         -0.28040       -3.26910       -0.30866
B         -0.25353       -4.71240        0.52991
B          2.58233       -3.28045        0.00554
B          1.17177       -4.10321        0.25088
B          2.59812       -1.64523       -0.38610
B          3.99267       -2.46485        0.15336
B          4.06006       -0.77639       -0.31524
B          1.16978       -2.47313       -0.54604
B          1.16116        2.59534       -0.58290
B         -3.20805        0.15342       -0.59998
B          1.14298       -0.74975       -0.70165
B         -4.41872        2.42673        0.51936
B          5.30851        1.80805        0.62938
B          5.30895        0.17522        0.40732
B          5.31440       -1.65419        0.65457
B          6.47670       -0.69303        1.25249
B          6.47407        0.85965        1.24120
B         -1.73163       -0.76852       -0.79366
B          0.62099       -2.76282       -0.73008
B         -0.28709        1.78149       -0.87481
B         -5.92660        1.71467        0.73525
B         -6.11889        0.00162        0.81227
B         -5.91818       -1.72793        0.83090
B          0.57267        0.02048       -1.12784
