45
isomer_3404.log	Energy: -113559.6376982
B          2.41075        1.92398       -0.51348
B          2.24057        3.43986        0.15207
B          0.77479        4.18039        0.24791
B         -0.57650        3.37181       -0.39888
B          0.97969        0.92224       -0.96950
B         -1.79476        0.72408       -0.72251
B         -2.03735        4.03513        0.25504
B          3.80497        1.07119       -0.10182
B         -1.97736        2.41073       -0.45529
B          3.66064        2.76883        0.34798
B         -0.67110        4.69214        0.48910
B         -3.36216        3.12673        0.14605
B         -3.37004        1.53696       -0.35346
B         -4.73918        0.59433       -0.20742
B         -0.22253       -1.68003       -1.04599
B         -1.57010       -2.53387       -0.40275
B         -3.02479       -1.83053       -0.18180
B         -4.51748       -1.03539        0.13107
B         -4.28001       -2.67913        0.63881
B         -2.85509       -3.37166        0.31103
B         -1.36874       -4.08902        0.36100
B         -0.09317       -3.31379       -0.47346
B          0.06597       -4.55208        0.52548
B          2.71734       -3.03968        0.01308
B          1.43168       -3.89307        0.16676
B          2.74846       -1.47621       -0.77449
B          4.05381       -2.17940        0.29614
B          4.17559       -0.63013       -0.91613
B          1.33943       -2.39786       -0.72293
B          0.89502        2.60948       -0.49567
B         -3.27054       -0.17044       -0.66123
B          1.08066       -0.71944       -1.03684
B         -4.68919        2.21120        0.47599
B          4.89995        1.88952        0.85669
B          5.31415        0.27419        0.11345
B          5.39030       -1.36014        0.16144
B          4.93609       -0.92051        1.63104
B          4.65504        0.61622        1.71542
B         -1.67556       -0.86254       -0.84065
B          3.59225       -0.52647        0.74470
B         -0.47801        1.69063       -0.85024
B         -5.66770        1.18012        0.98835
B         -5.83929       -0.35689        0.96446
B         -5.53964       -1.87013        1.01620
B          2.45315        0.21866       -0.62472
