45
isomer_3405.log	Energy: -113434.6909363
B         -2.60201        1.63314        0.67622
B         -2.51748        3.23916        0.05722
B         -1.16428        4.11688       -0.04734
B          0.31017        3.37819        0.49340
B         -1.12946        0.84000        1.03493
B          1.56604        0.74943        0.09564
B          1.64235        4.14536       -0.34673
B         -4.01872        0.80127        0.41841
B          1.70202        2.50611        0.27692
B         -3.87662        2.36384       -0.14889
B          0.22892        4.72018       -0.36845
B          3.05207        3.30213       -0.37212
B          3.07209        1.69237       -0.06137
B          4.53988        0.82372       -0.01424
B          0.25335       -1.63876        0.62259
B          1.68446       -2.49228        0.51681
B          3.12060       -1.75574        0.40459
B          4.40348       -0.83458       -0.26157
B          4.42542       -2.53298       -0.45525
B          3.00918       -3.30143       -0.11353
B          1.62299       -4.18804       -0.11533
B          0.24141       -3.26452        0.19752
B          0.20725       -4.77239       -0.26695
B         -2.59620       -3.26233       -0.08195
B         -1.21681       -4.10255       -0.17892
B         -2.66918       -1.57942        0.35877
B         -3.99577       -2.41757       -0.25305
B         -4.10149       -0.87358        0.41084
B         -1.27569       -2.45387        0.32814
B         -1.21038        2.55869        0.67993
B          3.13076        0.00750        0.46986
B         -1.21104       -0.69353        0.59283
B          4.42488        2.46869       -0.70865
B         -5.15088        1.65739       -0.67934
B         -5.31379        0.00650       -0.33494
B         -5.28957       -1.67067       -0.68931
B         -6.39417       -0.71778       -1.29211
B         -6.30407        0.76905       -1.33048
B          1.69123       -0.75655        1.08169
B          0.32620        0.07750        1.57945
B          0.35542        1.73513        0.93810
B          5.51568        1.48129       -1.07452
B          5.74427       -0.07828       -0.97948
B          5.59006       -1.64595       -0.90232
B          0.17744       -0.04073       -0.15703
