45
isomer_0341.log	Energy: -113556.2214093
B         -2.97307       -1.70334       -1.46990
B         -3.09746       -3.26835       -0.75413
B         -1.83516       -3.69727        0.15107
B         -0.22605       -3.33031       -0.49341
B         -1.54557       -0.76305       -0.76594
B          1.41824       -0.93097       -0.94505
B          0.95859       -4.11483        0.46614
B         -3.23897       -0.45058       -0.39445
B          1.25728       -2.58927       -0.36418
B         -4.16661       -2.10060       -0.37979
B         -0.50412       -4.40598        0.65793
B          2.45506       -3.42536        0.44065
B          2.71672       -1.93648       -0.16244
B          4.19921       -1.17010        0.21411
B          0.20780        1.74105       -0.50111
B          1.78610        2.35777       -0.24197
B          3.14007        1.45265       -0.24362
B          4.49426        0.45555       -0.14282
B          4.53273        2.08264        0.51710
B          3.25521        3.05048        0.19133
B          2.02890        4.09250        0.10624
B          0.50561        3.41105       -0.43233
B          0.74361        4.91230        0.11622
B         -2.23382        3.92152       -0.14072
B         -0.73772        4.55677       -0.08902
B         -2.47971        2.39348       -0.93948
B         -3.40983        3.03906        0.28963
B         -3.24910        1.24272       -0.22790
B         -1.00801        2.84928       -0.60422
B         -1.55129       -2.49994       -1.19805
B          2.98774       -0.24948       -0.59406
B         -1.48589        0.99961       -0.76266
B          3.93742       -2.78350        0.73365
B         -4.08426       -1.41604        1.04740
B         -4.05291        0.36013        0.87702
B         -4.28330        2.01142        1.15844
B         -4.93829        0.99442        2.07786
B         -4.79011       -0.50091        2.08124
B          1.52674        0.68137       -0.55546
B         -2.51072       -1.98771        0.37621
B         -0.01485       -1.76501       -1.18040
B          5.24501       -2.04261        1.02438
B          5.59707       -0.53073        0.95263
B          5.51333        1.01726        0.96009
B         -0.08990        0.03937       -0.85619
