45
isomer_3411.log	Energy: -113389.9999730
B         -2.57516        1.75837        0.63537
B         -2.52004        3.43431       -0.01704
B         -1.13314        4.15090       -0.14528
B          0.31673        3.45184        0.57510
B         -1.20269        0.98907        1.03357
B          1.79396        0.96846        0.96845
B          1.72292        4.13708       -0.27091
B         -3.93471        1.00587        0.17523
B          1.80671        2.60330        0.46841
B         -3.79778        2.57982       -0.24888
B          0.30019        4.67323       -0.45008
B          3.10053        3.32283       -0.28762
B          3.19725        1.74845        0.33927
B          4.53410        0.85094       -0.25108
B          0.32221       -1.50950        0.91007
B          1.72364       -2.47820        0.51515
B          3.20214       -1.63552        0.45284
B          4.50994       -0.87583       -0.19717
B          4.34405       -2.52435       -0.66286
B          2.98111       -3.26528       -0.18285
B          1.57295       -4.01912       -0.18352
B          0.20115       -3.24014        0.63039
B          0.09613       -4.47540       -0.48542
B         -2.55447       -3.20000       -0.09652
B         -1.24289       -3.84085       -0.81233
B         -2.54876       -1.42449        0.44331
B         -3.86899       -2.32942       -0.23192
B         -3.94884       -0.75143        0.11364
B         -1.23119       -2.30512        0.70941
B         -1.17024        2.60701        0.58993
B          3.31288        0.01814        0.63590
B         -1.20740       -0.61924        0.81043
B          4.37371        2.45406       -0.80169
B         -5.15914        1.78200       -0.73450
B         -5.24072        0.15406       -0.33392
B         -5.19639       -1.50988       -0.75886
B         -6.25364       -0.59710       -1.40392
B         -6.24179        0.90026       -1.40058
B          1.75532       -0.79762        0.88114
B         -1.25213       -3.99285        0.75047
B          0.33238        1.83608        1.12214
B          5.44131        1.50072       -1.37674
B          5.57284       -0.06463       -1.35224
B          5.41814       -1.63424       -1.27716
B          0.34782        0.16343        1.20288
