45
isomer_3414.log	Energy: -113349.2080586
B          2.53571        1.79102       -0.54454
B          2.45757        3.43328       -0.07158
B          1.05628        4.17331        0.15762
B         -0.37538        3.43743       -0.43679
B          1.16202        0.98889       -1.08776
B         -1.77234        0.90124       -0.94447
B         -1.74594        4.07874        0.40174
B          3.96466        1.00923       -0.31157
B         -1.82569        2.54617       -0.38764
B          3.83087        2.60443        0.18214
B         -0.34532        4.70307        0.53895
B         -3.13588        3.21825        0.38774
B         -3.20515        1.68090       -0.24379
B         -4.57044        0.75375        0.18076
B         -0.29145       -1.65532       -1.24055
B         -1.65917       -2.44182       -0.38833
B         -3.08874       -1.69465       -0.26335
B         -4.50262       -0.93709        0.11409
B         -4.33987       -2.54192        0.69047
B         -2.90602       -3.28847        0.31194
B         -1.48135       -3.95002        0.36760
B         -0.12679       -3.24004       -0.53349
B          0.01519       -4.53057        0.45825
B          2.62040       -3.18040       -0.06762
B          1.48115       -4.38535        0.05118
B          2.65867       -1.46763       -0.62324
B          3.96602       -2.24548        0.12659
B          4.03214       -0.66565       -0.36359
B          1.25821       -2.25054       -0.89981
B          1.15725        2.66830       -0.74216
B         -3.27779       -0.01682       -0.61932
B          1.27712       -0.57872       -1.16065
B         -4.50205        2.39287        0.71696
B          5.04074        1.84729        0.83337
B          5.13279        0.17869        0.57033
B          5.18946       -1.52687        0.75781
B          6.20593       -0.57424        1.51565
B          6.13918        0.92483        1.55910
B         -1.69954       -0.81778       -0.97272
B          1.11028       -2.93962        0.57108
B         -0.38757        1.85534       -1.09817
B         -5.60962        1.43232        1.17678
B         -5.72808       -0.11351        1.15535
B         -5.44041       -1.65882        1.20570
B         -0.27442        0.08198       -1.03001
