45
isomer_3415.log	Energy: -113428.8092625
B          2.55719       -1.64183        0.36859
B          2.52271       -3.32896        0.03229
B          1.18551       -4.15280        0.15539
B         -0.26339       -3.41050        0.88507
B          1.18896       -0.76094        0.62970
B         -1.60705       -0.75139        0.68723
B         -1.56934       -4.12804       -0.07638
B          3.88177       -0.84109        0.05977
B         -1.41660       -2.37982        0.09027
B          3.83456       -2.46135       -0.29528
B         -0.21124       -4.77277        0.03979
B         -2.86528       -3.23651       -0.35948
B         -3.00395       -1.69098        0.12297
B         -4.43610       -0.85538       -0.23205
B         -0.30347        1.79587        1.16027
B         -1.71487        2.55385        0.49432
B         -3.10858        1.74116        0.28358
B         -4.41371        0.81271       -0.30316
B         -4.34810        2.48345       -0.71384
B         -3.01406        3.32083       -0.24193
B         -1.65623        4.15247       -0.17750
B         -0.26620        3.42998        0.65714
B         -0.22556        4.70716       -0.29276
B          2.56198        3.41530        0.06892
B          1.19835        4.16745       -0.01783
B          2.54215        1.67741        0.55927
B          3.84416        2.54513       -0.14709
B          3.91365        0.92352        0.15027
B          1.18856        2.55064        0.63537
B          1.16333       -2.49578        0.65485
B         -3.17507        0.00074        0.53050
B          1.17931        0.88855        0.83396
B         -4.19231       -2.46792       -0.83782
B          5.13491       -1.61087       -0.86757
B          5.10851        0.04898       -0.52715
B          5.14695        1.71400       -0.72586
B          6.19614        0.81944       -1.46474
B          6.18880       -0.68730       -1.51989
B         -1.75204        0.92942        1.01324
B         -0.22274        0.01698        1.35012
B         -0.28554       -1.76491        1.46833
B         -5.31652       -1.54866       -1.35327
B         -5.56034       -0.02569       -1.30611
B         -5.42684        1.55223       -1.24701
B         -0.18238       -1.23377       -0.22447
