45
isomer_3416.log	Energy: -111434.9738734
B          2.58326        1.72230       -0.46962
B          2.57418        3.36148       -0.09464
B          1.16733        4.19056        0.15064
B         -0.29039        3.35476       -0.39169
B          1.12386        0.82763       -0.76734
B         -1.75118        0.85335       -0.84246
B         -1.67916        4.14068        0.29966
B          4.04325        0.85022       -0.39856
B         -1.67195        2.45952       -0.28716
B          3.98319        2.54356        0.05313
B         -0.25465        4.80647        0.43189
B         -3.10995        3.29198        0.32188
B         -3.13646        1.66874       -0.23940
B         -4.59336        0.85571        0.26509
B         -0.31400       -1.70131       -0.90609
B         -1.69343       -2.39614       -0.27274
B         -3.15088       -1.59216       -0.22972
B         -4.60052       -0.76330        0.26989
B         -4.43894       -2.32095        0.51913
B         -3.13873       -3.21222        0.34118
B         -1.71550       -4.07366        0.32404
B         -0.31985       -3.30418       -0.37193
B         -0.29693       -4.75124        0.46026
B          2.54456       -3.33448       -0.07477
B          1.13043       -4.14961        0.17540
B          2.56813       -1.69770       -0.45947
B          3.96076       -2.52820        0.06818
B          4.03578       -0.83817       -0.39355
B          1.13378       -2.51611       -0.61448
B          1.15620        2.55243       -0.62953
B         -3.22800        0.13748       -0.63118
B          1.11670       -0.79194       -0.76253
B         -4.41800        2.41332        0.50508
B          5.30571        1.73444        0.55475
B          5.29477        0.10262        0.32568
B          5.29040       -1.72785        0.56502
B          6.46211       -0.77645        1.16017
B          6.46898        0.77626        1.15556
B         -1.75846       -0.79266       -0.83757
B          1.72880        0.05060        1.16808
B         -0.29873        1.74876       -0.91633
B         -5.92894        1.70961        0.72685
B         -6.13134       -0.00255        0.79765
B         -5.94119       -1.73336        0.80766
B          0.18837       -1.14825       -0.85606
