45
isomer_3417.log	Energy: -113419.1767361
B         -2.54249        1.43254        0.85916
B         -2.69712        3.19380        0.02034
B         -1.42311        3.98080       -0.38473
B          0.06281        3.28333        0.20446
B         -1.21640        0.85967        1.60072
B          1.65748        0.87216        0.71574
B          1.40328        4.03053       -0.61169
B         -3.97688        0.69412        0.42398
B          1.59765        2.56906        0.34965
B         -3.88599        2.26418        0.07829
B         -0.03040        4.53786       -0.78030
B          2.85296        3.32679       -0.46348
B          3.02919        1.78805        0.19248
B          4.54746        1.02514        0.16091
B          0.33073       -1.77964        0.92114
B          1.81839       -2.45588        0.46558
B          3.22151       -1.62614        0.42213
B          4.56856       -0.64323       -0.01343
B          4.58922       -2.34266       -0.38329
B          3.21092       -3.17266       -0.13912
B          1.84684       -4.06105       -0.31999
B          0.40944       -3.31384        0.28447
B          0.47513       -4.66426       -0.59615
B         -2.33912       -3.32051       -0.39413
B         -0.95325       -4.10071       -0.48069
B         -2.44351       -1.69911        0.19159
B         -3.74258       -2.53938       -0.45147
B         -3.88130       -1.01007        0.11409
B         -1.08259       -2.55948        0.39785
B         -1.32616        2.25082       -0.00890
B          3.23560        0.11526        0.69234
B         -1.15686       -0.76994        0.64732
B          4.27737        2.55859       -0.68795
B         -5.27536        1.46307       -0.31534
B         -5.29003       -0.20008       -0.02987
B         -5.17303       -1.76986       -0.71335
B         -6.33609       -0.86984       -1.12630
B         -6.37986        0.60921       -0.97475
B          1.72059       -0.75314        0.84176
B         -0.95729        0.69380       -0.09895
B          0.16107        1.77387        0.96207
B          5.36986        1.61514       -1.10808
B          5.77796        0.11726       -0.93141
B          5.72602       -1.41814       -0.79846
B          0.21938        0.01460        1.26576
