45
isomer_3418.log	Energy: -112115.7765250
B         -2.55891       -1.75573       -0.38927
B         -2.49994       -3.42352       -0.01488
B         -1.06774       -4.25207        0.21411
B          0.37451       -3.39415       -0.34529
B         -1.14144       -0.70399       -0.70434
B          1.79328       -0.82659       -0.82364
B          1.78225       -4.13729        0.33807
B         -4.02358       -0.88115       -0.30335
B          1.75466       -2.45957       -0.25291
B         -3.91569       -2.57953        0.14813
B          0.37119       -4.81916        0.47883
B          3.18911       -3.25832        0.35511
B          3.19070       -1.62918       -0.21275
B          4.62149       -0.77328        0.28570
B          0.29058        1.77131       -0.89675
B          1.66093        2.47008       -0.24646
B          3.13333        1.67726       -0.20620
B          4.58575        0.86234        0.28929
B          4.40934        2.42533        0.55374
B          3.07749        3.29744        0.37310
B          1.65466        4.13764        0.36587
B          0.26160        3.37814       -0.33261
B          0.23403        4.79100        0.51122
B         -2.61326        3.38243        0.00529
B         -1.18990        4.20026        0.23370
B         -2.64461        1.73604       -0.39292
B         -4.01205        2.53348        0.16980
B         -4.05650        0.84358       -0.29678
B         -1.18132        2.59817       -0.56892
B         -1.10141       -2.63756       -0.56325
B          3.25100       -0.06507       -0.61068
B         -1.12664        0.82005       -0.71280
B          4.49583       -2.35014        0.53784
B         -5.23442       -1.77425        0.67151
B         -5.26173       -0.12935        0.44432
B         -5.29237        1.68663        0.68637
B         -6.40752        0.71061        1.29701
B         -6.39407       -0.82956        1.29244
B          1.76106        0.85415       -0.82335
B         -1.61108        1.35988       -1.34100
B          0.40134       -1.75854       -0.88269
B          5.95152       -1.57352        0.74705
B          6.10342        0.11657        0.81228
B          5.88389        1.81190        0.82696
B         -0.89877       -1.45277       -0.71691
