45
isomer_3419.log	Energy: -112361.1934094
B          2.58794       -1.58658        0.38060
B          2.60409       -3.21782       -0.02733
B          1.20986       -4.06553       -0.28099
B         -0.25828       -3.26559        0.28670
B          1.11559       -0.72292        0.70492
B         -1.75809       -0.79883        0.79647
B         -1.63793       -4.06088       -0.41217
B          4.03259       -0.68866        0.31854
B         -1.65533       -2.39195        0.20841
B          3.99819       -2.37336       -0.16687
B         -0.20328       -4.69966       -0.56621
B         -3.08290       -3.23625       -0.40880
B         -3.13319       -1.62529        0.18526
B         -4.60668       -0.82709       -0.29410
B         -0.36369        1.77801        0.90316
B         -1.75854        2.46196        0.29212
B         -3.20251        1.63444        0.24148
B         -4.64110        0.79134       -0.26619
B         -4.50729        2.35619       -0.48489
B         -3.22115        3.26560       -0.29667
B         -1.81254        4.15051       -0.27055
B         -0.39982        3.39095        0.40150
B         -0.40644        4.85461       -0.40142
B          2.46176        3.47572        0.08812
B          1.03259        4.27165       -0.13720
B          2.51524        1.83218        0.43956
B          3.89039        2.69657       -0.07943
B          3.99670        0.99912        0.34765
B          1.06834        2.62290        0.61952
B          1.17607       -2.44381        0.53214
B         -3.24803       -0.10398        0.60841
B          1.08117        0.89606        0.73284
B         -4.40666       -2.37637       -0.56651
B          5.30377       -1.53205       -0.65986
B          5.26682        0.09443       -0.39784
B          5.23017        1.92899       -0.60016
B          6.41399        1.00971       -1.22129
B          6.44699       -0.54243       -1.24806
B         -1.79307        0.84658        0.82485
B          2.03324       -0.70970       -0.27655
B         -0.29036       -1.67082        0.84368
B         -5.93057       -1.69404       -0.76511
B         -6.16216        0.01552       -0.80014
B         -6.00122        1.74916       -0.77634
B          1.01533       -2.48859        1.64874
