45
isomer_3420.log	Energy: -112492.7593727
B          2.80820       -1.54922        0.34729
B          2.80181       -3.27010       -0.02694
B          1.44344       -4.11706       -0.27713
B         -0.17080       -3.34200        0.27497
B          1.36616       -0.53339        0.60879
B         -1.89299       -0.82814        0.89239
B         -1.55819       -4.06493       -0.46105
B          4.12043       -0.65845        0.26021
B         -1.77197       -2.40646        0.18734
B          4.14515       -2.33362       -0.17029
B         -0.04884       -4.64863       -0.55682
B         -3.08858       -3.23697       -0.49343
B         -3.22064       -1.64959        0.15251
B         -4.67005       -0.83327       -0.34452
B         -0.34007        1.74536        0.89874
B         -1.80688        2.40853        0.32517
B         -3.26802        1.59678        0.26965
B         -4.69438        0.78497       -0.26868
B         -4.56945        2.35785       -0.49483
B         -3.23604        3.19969       -0.26694
B         -1.82712        4.06700       -0.24914
B         -0.40786        3.35450        0.37894
B         -0.44792        4.72010       -0.41323
B          2.44963        3.44442       -0.03065
B          0.98684        4.19397       -0.20769
B          2.56817        1.81466        0.34008
B          3.87299        2.65752       -0.21586
B          4.03050        1.03242        0.24855
B          1.12727        2.59720        0.54877
B          1.45898       -2.51297        0.52411
B         -3.34596       -0.12787        0.62570
B          1.20362        0.91138        0.65268
B         -4.49999       -2.40976       -0.67870
B          5.36638       -1.48654       -0.71154
B          5.27729        0.15884       -0.49094
B          5.17546        1.91751       -0.72917
B          6.32265        1.03024       -1.32838
B          6.43755       -0.46708       -1.33288
B         -1.89144        0.79477        0.87901
B          1.85557       -0.88806        2.31800
B         -0.71814       -1.68949        1.06876
B         -5.90422       -1.61539       -0.86962
B         -6.10197        0.03500       -0.85589
B         -5.95383        1.61440       -0.78121
B          0.61727       -1.76812        0.45387
