45
isomer_3422.log	Energy: -112342.6669209
B         -2.63820        1.70886        0.38531
B         -2.63171        3.34979        0.01801
B         -1.22611        4.18252       -0.22212
B          0.23260        3.34679        0.31764
B         -1.17748        0.81542        0.68018
B          1.69745        0.84590        0.75804
B          1.62059        4.13840       -0.36877
B         -4.09657        0.83453        0.30884
B          1.61585        2.45450        0.21018
B         -4.03912        2.53007       -0.13487
B          0.19501        4.80227       -0.49918
B          3.05291        3.29236       -0.39364
B          3.08181        1.66656        0.16007
B          4.54062        0.85850       -0.34688
B          0.26477       -1.71159        0.80842
B          1.64601       -2.40099        0.17309
B          3.10207       -1.59422        0.13516
B          4.55068       -0.76046       -0.35925
B          4.39210       -2.31720       -0.61591
B          3.09332       -3.21161       -0.44332
B          1.67162       -4.07566       -0.43151
B          0.27396       -3.31192        0.26677
B          0.25438       -4.75511       -0.57218
B         -2.59012       -3.34593       -0.03314
B         -1.17430       -4.15737       -0.28582
B         -2.61695       -1.71101        0.35919
B         -4.00762       -2.54152       -0.17361
B         -4.08608       -0.85380        0.29594
B         -1.18129       -2.52758        0.51168
B         -1.21277        2.54078        0.55040
B          3.17573        0.13366        0.54477
B         -1.16742       -0.80410        0.66781
B          4.36269        2.41690       -0.57975
B         -5.35974        1.72095       -0.64148
B         -5.34609        0.08809       -0.42003
B         -5.33823       -1.74122       -0.66792
B         -6.51111       -0.78913       -1.25968
B         -6.52076        0.76352       -1.24783
B          1.70767       -0.80005        0.74547
B         -0.17053       -0.15133        0.43035
B          0.24334        1.73837        0.83477
B          5.87509        1.71693       -0.80342
B          6.08061        0.00548       -0.88204
B          5.89356       -1.72560       -0.90031
B          0.46775       -0.66375        3.12058
