45
isomer_3426.log	Energy: -113521.6082386
B          2.52654        1.72873       -0.57300
B          2.57373        3.36073       -0.19262
B          1.22346        4.14524        0.05348
B         -0.27025        3.40273       -0.43533
B          1.02407        0.88160       -0.83442
B         -1.75022        0.88600       -0.82610
B         -1.59068        4.10999        0.45158
B          3.96109        0.83399       -0.34990
B         -1.69735        2.51646       -0.21894
B          3.93815        2.50332       -0.03450
B         -0.15299        4.69339        0.48132
B         -2.98893        3.30657        0.46616
B         -3.11023        1.74850       -0.11740
B         -4.55188        0.90302        0.19173
B         -0.44585       -1.64027       -0.91489
B         -1.86872       -2.42042       -0.52968
B         -3.31776       -1.62321       -0.44515
B         -4.71888       -0.73599       -0.17827
B         -4.59089       -2.38001        0.41157
B         -3.25291       -3.22270        0.02054
B         -1.91322       -4.05600        0.13475
B         -0.42666       -3.31812       -0.48850
B         -0.51632       -4.61926        0.43822
B          2.23772       -3.11943        0.47607
B          0.86745       -3.99839        0.34268
B          2.60582       -1.89910       -1.00496
B          3.59197       -2.36810        0.62419
B          3.86797       -0.98507       -0.40676
B          1.09749       -2.50718       -0.67397
B          1.16030        2.58040       -0.80770
B         -3.28875        0.09778       -0.66170
B          1.01216       -0.80975       -0.71364
B         -4.38821        2.50462        0.79370
B          5.13826        1.61400        0.54037
B          5.25021       -0.10712        0.16354
B          5.04242       -1.69764        0.77473
B          6.20898       -0.85363        1.27089
B          6.14674        0.63459        1.27716
B         -1.76284       -0.74049       -0.78492
B          2.12765       -1.39126        0.58928
B         -0.35111        1.75124       -0.97150
B         -5.59420        1.63669        1.13288
B         -5.84240        0.09588        0.99604
B         -5.65198       -1.42484        0.93711
B          2.44102       -0.01749       -0.40415
