45
isomer_3428.log	Energy: -113379.2605814
B         -2.76485        1.56016        0.62933
B         -2.77296        3.26590       -0.05630
B         -1.44745        4.08111       -0.12949
B          0.02714        3.26675        0.31324
B         -1.40471        0.78323        0.99754
B          1.61122        0.79171        0.84500
B          1.39219        4.22004       -0.10902
B         -4.11011        0.80419        0.18950
B          1.53471        2.55822        0.61045
B         -4.02135        2.38989       -0.22570
B         -0.04585        4.74275       -0.27107
B          2.78373        3.45556       -0.07983
B          2.96609        1.83155        0.30117
B          4.45530        1.07553       -0.02061
B          0.14990       -1.73787        1.44810
B          2.22984       -2.76882        0.64956
B          3.11469       -1.53537       -0.04958
B          4.35683       -0.49668       -0.57946
B          4.40149       -2.11763       -1.13769
B          3.18091       -3.05391       -0.67578
B          1.82033       -3.88640       -0.59445
B          0.53007       -3.27696        0.60788
B          0.44147       -4.42963       -0.56847
B         -2.36765       -3.22719       -0.16922
B         -0.92825       -3.94626       -0.23152
B         -2.57413       -1.66551        0.56401
B         -3.73134       -2.44389       -0.39775
B         -3.94313       -0.91429        0.10352
B         -1.12665       -2.50335        0.57202
B         -1.38294        2.35100        0.33552
B          3.17402        0.08760        0.50060
B         -1.25053       -0.85391        1.13445
B          4.15940        2.73547       -0.50911
B         -5.33596        1.50753       -0.73045
B         -5.32359       -0.13965       -0.35742
B         -5.12798       -1.75200       -0.86214
B         -6.23406       -0.91834       -1.50456
B         -6.32198        0.57120       -1.46001
B          1.84259       -0.88685        1.15591
B          1.45141       -2.36869        1.91724
B          0.12256        1.68682        0.82697
B          5.25193        1.89723       -1.15343
B          5.57421        0.41265       -1.36241
B          5.46715       -1.11841       -1.54811
B          0.17631       -0.03446        1.08158
