45
isomer_3429.log	Energy: -113386.6599409
B          2.82300        1.55312       -0.58496
B          2.89056        3.18119        0.00296
B          1.56272        4.06841        0.03437
B          0.12081        3.28857       -0.39478
B          1.46804        0.74733       -1.06566
B         -1.50701        0.83800       -0.67863
B         -1.25488        4.21614        0.20120
B          4.04621        0.64605       -0.05745
B         -1.42782        2.58594       -0.37532
B          4.08960        2.27651        0.27066
B          0.22284        4.74592        0.24054
B         -2.64626        3.51017        0.25529
B         -2.88945        1.84418       -0.15863
B         -4.39407        1.21582        0.04348
B         -0.17493       -1.68950       -1.53657
B         -2.39738       -2.77558       -0.78103
B         -3.13776       -1.47180        0.01684
B         -4.49241       -0.46197        0.36806
B         -4.62301       -2.10658        0.88494
B         -3.46724       -3.06685        0.44816
B         -2.04352       -3.74777        0.59015
B         -0.63726       -3.15791       -0.50113
B         -0.63133       -4.18813        0.76142
B          2.27079       -3.25095        0.21906
B          0.75941       -3.80497        0.38029
B          2.52557       -1.72195       -0.46230
B          3.73117       -2.60469        0.39505
B          3.88403       -0.99699        0.08070
B          1.08626       -2.49776       -0.60735
B          1.48457        2.41137       -0.78541
B         -3.13112        0.15464       -0.49268
B          1.26743       -0.85363       -1.16395
B         -4.04794        2.79798        0.67474
B          5.41577        1.34098        0.71496
B          5.36544       -0.28934        0.27248
B          5.10506       -1.93809        0.84393
B          6.21066       -1.05743        1.46652
B          6.43805        0.41041        1.33669
B         -1.79665       -0.88059       -0.92880
B         -0.14188       -0.03636       -0.95390
B         -0.06452        1.69868       -0.90598
B         -5.17408        1.96746        1.24665
B         -5.60775        0.49469        1.25361
B         -5.62673       -1.04255        1.32445
B         -1.45300       -2.35217       -1.89266
