45
isomer_0343.log	Energy: -111873.3206162
B         -2.56359       -1.77416       -0.37479
B         -2.53791       -3.38431       -0.02249
B         -1.11699       -4.16801        0.20450
B          0.34617       -3.33955       -0.34569
B         -1.02435       -0.77539       -0.73098
B          1.83306       -0.83465       -0.82773
B          1.73360       -4.12075        0.33412
B         -4.01904       -0.84805       -0.31951
B          1.74068       -2.44819       -0.26063
B         -3.96256       -2.58178        0.13925
B          0.30863       -4.77105        0.47358
B          3.16703       -3.28860        0.33933
B          3.21267       -1.66879       -0.22973
B          4.68065       -0.86354        0.25643
B          0.43590        1.74468       -0.88761
B          1.82653        2.42584       -0.26828
B          3.26784        1.60490       -0.23474
B          4.70501        0.76023        0.25346
B          4.57414        2.32412        0.50509
B          3.27479        3.22722        0.33180
B          1.86960        4.10247        0.32798
B          0.46151        3.35134       -0.35356
B          0.46256        4.78450        0.47524
B         -2.41127        3.42412       -0.01577
B         -0.96851        4.21130        0.21152
B         -2.40207        1.79283       -0.41166
B         -3.87152        2.62510        0.16100
B         -3.99037        0.80897       -0.30167
B         -0.99741        2.58341       -0.57820
B         -1.09170       -2.53816       -0.57418
B          3.32069       -0.12810       -0.62967
B         -0.99281        0.85780       -0.72868
B          4.50069       -2.42625        0.51092
B         -5.25736       -1.74994        0.63908
B         -5.22204       -0.11952        0.41024
B         -5.18528        1.76988        0.64758
B         -6.34789        0.79222        1.23062
B         -6.39403       -0.76242        1.23744
B          1.86229        0.81934       -0.82949
B         -3.55520        1.43567       -0.46037
B          0.37272       -1.71860       -0.88561
B          5.99571       -1.71485        0.70918
B          6.21144       -0.02194        0.76731
B          6.04651        1.68652        0.77301
B         -2.29852       -1.08588       -0.66761
