45
isomer_3430.log	Energy: -113631.8377517
B          2.52281       -1.71745        0.33376
B          2.48613       -3.34788       -0.06541
B          1.05206       -4.10684       -0.26190
B         -0.37979       -3.36906        0.33459
B          1.07951       -0.85108        0.74744
B         -1.82384       -0.86352        0.81079
B         -1.79154       -4.12098       -0.36814
B          3.99193       -0.91292        0.26011
B         -1.85050       -2.52894        0.44003
B          3.93871       -2.57071       -0.09615
B         -0.37958       -4.68640       -0.54354
B         -3.16204       -3.28468       -0.30727
B         -3.24253       -1.70572        0.25732
B         -4.67667       -0.82086        0.01355
B         -0.31234        1.74719        0.92138
B         -1.74860        2.56468        0.42569
B         -3.17840        1.76408        0.25831
B         -4.61501        0.89963       -0.00698
B         -4.46332        2.52881       -0.58638
B         -3.06134        3.34850       -0.22873
B         -1.65201        4.09857       -0.33983
B         -0.26175        3.37938        0.42034
B         -0.19235        4.62300       -0.56526
B          2.60803        3.32664       -0.14746
B          1.21535        4.11528       -0.27423
B          2.60517        1.71315        0.40961
B          3.98177        2.50738       -0.22936
B          4.03297        0.85993        0.27095
B          1.16926        2.52534        0.35773
B          1.10505       -2.54453        0.44152
B         -3.28589        0.02664        0.63813
B          1.14714        0.88031        0.68746
B         -4.52919       -2.45635       -0.61856
B          5.25499       -1.77848       -0.53548
B          5.31259       -0.05340       -0.31020
B          5.29685        1.64605       -0.58379
B          6.42234        0.67901       -1.17043
B          6.39808       -0.85241       -1.15172
B         -1.78507        0.84751        0.81801
B         -0.35375        0.01734        1.17238
B         -0.40552       -1.73250        0.88185
B         -5.63549       -1.49670       -1.06471
B         -5.80016        0.05655       -1.01387
B         -5.59469        1.61843       -1.04496
B          2.56061        0.02800        0.61338
