45
isomer_3432.log	Energy: -113439.1077960
B         -2.49413        1.73837        0.52497
B         -2.44052        3.39456       -0.08553
B         -1.07009        4.16244       -0.30143
B          0.38120        3.40037        0.27576
B         -1.15136        0.94098        1.05965
B          1.75847        0.89009        0.71556
B          1.75884        4.14334       -0.45733
B         -3.83392        0.97710        0.20802
B          1.80512        2.54985        0.40530
B         -3.85195        2.63239       -0.04709
B          0.36175        4.73112       -0.60038
B          3.14074        3.28659       -0.37844
B          3.19380        1.72266        0.15498
B          4.63217        0.78982        0.04735
B          0.30551       -1.67454        1.30672
B          1.60636       -2.48420        0.57416
B          3.06833       -1.71009        0.36119
B          4.42597       -0.85176       -0.20146
B          4.32333       -2.51179       -0.57023
B          2.89798       -3.24177       -0.14531
B          1.45955       -3.95886       -0.26605
B         -0.02917       -3.24436        0.36786
B          0.14535       -4.46342       -0.73051
B         -2.59309       -3.17965       -0.82567
B         -1.28183       -4.03471       -0.86863
B         -2.45334       -1.73051        0.42733
B         -3.69170       -2.14181       -0.65540
B         -3.75645       -0.71669        0.10223
B         -1.78375       -3.40372        0.55953
B         -1.13747        2.64800        0.57458
B          3.27158        0.01069        0.67776
B         -1.25176       -0.66026        1.01931
B          4.45461        2.41810       -0.71132
B         -5.17953        1.87550       -0.44608
B         -5.21754        0.16997       -0.10913
B         -5.13483       -1.35932       -0.76058
B         -6.31204       -0.51332       -1.16550
B         -6.23074        0.97272       -1.12672
B          1.71155       -0.77932        1.02761
B         -1.13116       -2.32046        1.44347
B          0.37327        1.87148        0.94532
B          5.50032        1.39776       -1.14937
B          5.70555       -0.13433       -1.09249
B          5.48419       -1.68491       -1.06413
B          0.26086        0.07591        0.98011
