45
isomer_3433.log	Energy: -113464.6532880
B          3.02400       -0.81241        0.57248
B          2.78401       -2.63395        0.41093
B          1.76231       -3.84858       -0.00451
B          0.14951       -3.56879        0.61994
B          1.79332        0.26154        0.90550
B         -1.36603       -0.96654        0.88546
B         -0.94165       -4.22994       -0.49081
B          4.55250       -0.36068        0.48806
B         -1.27877       -2.68661        0.38941
B          4.21532       -1.93903        0.07917
B          0.53087       -4.62384       -0.53729
B         -2.38504       -3.50116       -0.50894
B         -2.66054       -1.96758        0.08923
B         -4.17426       -1.30497       -0.22726
B         -0.72242        2.19351        1.55264
B         -2.00619        2.46298        0.56897
B         -3.03813        1.33344        0.10252
B         -4.35252        0.34833       -0.23719
B         -4.51703        1.95243       -0.77394
B         -3.27814        2.92333       -0.38779
B         -2.09258        3.96207       -0.41009
B         -0.75814        3.65216        0.67681
B         -0.77151        4.73243       -0.50149
B          2.02474        3.56870        0.11848
B          0.62879        4.34250       -0.05679
B          2.06821        1.97354        0.65989
B          3.10115        2.61873       -0.47072
B          3.38826        0.93240        0.10595
B          0.74247        2.95770        1.08984
B          1.58232       -1.33782        1.16370
B         -2.96129       -0.29807        0.49047
B          0.60245        1.29813        1.31193
B         -3.83948       -2.83746       -0.89755
B          5.30509       -1.18787       -0.82021
B          4.64336        0.42329       -0.92492
B          3.87653        1.75326       -1.53839
B          4.80584        0.91112       -2.44906
B          5.57966       -0.32703       -2.06901
B         -1.45392        0.75752        0.98122
B          1.45697       -2.90664        1.37950
B         -0.00183       -2.01065        1.34447
B         -5.07297       -2.08857       -1.31253
B         -5.49516       -0.60316       -1.21460
B         -5.53489        0.93671       -1.17970
B          0.08479       -0.25445        1.02620
