45
isomer_3434.log	Energy: -113483.9004981
B         -2.55324        1.64069        0.76637
B         -2.61522        3.38871        0.04866
B         -1.29369        4.22365       -0.10944
B          0.17327        3.52758        0.40242
B         -1.17490        1.15250        1.35439
B          1.41141        0.85241        0.80336
B          1.50380        4.23697       -0.42014
B         -3.75752        0.78448        0.14142
B          1.59077        2.57810        0.44427
B         -3.76011        2.41289       -0.20218
B          0.11961        4.83549       -0.49656
B          2.83572        3.33922       -0.39511
B          2.93480        1.78002        0.10391
B          4.34685        0.94156       -0.25367
B          0.36384       -1.93895        1.10407
B          1.81187       -2.57060        0.68295
B          3.07882       -1.65773        0.24150
B          4.41371       -0.70945       -0.22108
B          4.43841       -2.37837       -0.59658
B          3.12051       -3.26408       -0.15702
B          1.82012       -4.17957       -0.32727
B          0.40324       -3.42636        0.26365
B          0.45030       -4.78501       -0.56050
B         -2.40081       -3.48586       -0.09478
B         -1.01595       -4.27455       -0.23320
B         -2.48042       -1.86070        0.63066
B         -3.69258       -2.59266       -0.30145
B         -3.69316       -0.92800        0.05675
B         -1.08827       -2.83242        0.71922
B         -1.27844        2.79106        0.89074
B          3.03325        0.08809        0.41019
B         -2.03365       -0.12173        0.81658
B          4.25056        2.55282       -0.77850
B         -4.99186        1.56307       -0.84486
B         -4.96989       -0.10544       -0.54461
B         -4.84652       -1.73471       -0.99799
B         -5.80587       -0.79671       -1.76985
B         -5.94302        0.68748       -1.62995
B          1.58513       -0.77633        0.75415
B         -1.13266       -1.30850        1.46416
B          0.23284        2.01503        1.16639
B          5.42274        1.68632       -1.19500
B          5.64186        0.14262       -1.16481
B          5.50639       -1.42037       -1.12670
B          0.03794       -0.07267        1.15547
