45
isomer_3435.log	Energy: -113471.6013552
B          2.99233       -1.27283        1.12346
B          3.30142       -2.92279        1.03430
B          2.52069       -2.58939       -0.46118
B          0.34776       -3.16521        0.93528
B          2.08623        0.08376        0.95764
B         -1.52948       -0.95842        0.79108
B         -0.44371       -3.59156       -0.61641
B          3.90373       -0.30893        0.20025
B         -1.21938       -2.65274        0.52932
B          4.07968       -2.01170       -0.10679
B          1.09174       -3.16552       -0.62473
B         -2.00042       -3.47141       -0.68409
B         -2.70271       -2.14328        0.11112
B         -4.21017       -1.62365       -0.30567
B         -0.74315        1.74560        1.34319
B         -2.29942        2.29332        0.80502
B         -3.40457        1.18653        0.24247
B         -4.59565        0.02958       -0.29650
B         -4.82419        1.72094       -0.58826
B         -3.72606        2.76047       -0.01198
B         -2.50550        3.82997       -0.00507
B         -1.00685        3.31902        0.76370
B         -1.23564        4.56813       -0.23552
B          1.64169        3.46264       -0.26059
B          0.23925        4.12145       -0.15465
B          2.04820        1.88963        0.44501
B          3.04557        2.82015       -0.61503
B          3.43862        1.29867       -0.11374
B          0.58120        2.70958        0.72086
B          1.49009       -1.78726        0.87636
B         -3.13609       -0.49899        0.47866
B          0.91458        1.11201        1.33603
B         -3.53925       -2.97258       -1.14288
B          5.14919       -1.00847       -0.82753
B          4.81309        0.65282       -0.72091
B          4.37827        2.23978       -1.28750
B          5.49702        1.43499       -1.99061
B          5.87925        0.00436       -1.76288
B         -1.93271        0.61558        0.91268
B          1.85686       -3.60180        0.93915
B         -0.10716       -1.59823        1.33637
B         -4.76079       -2.28645       -1.66458
B         -5.44165       -0.89456       -1.45190
B         -5.69640        0.61325       -1.25827
B         -0.23551        0.01353        1.30530
