45
isomer_3438.log	Energy: -113502.6448931
B         -3.16960        0.99399        0.16946
B         -3.10187        2.70325        0.06851
B         -1.88148        3.61880        0.08252
B         -0.33530        3.01655        0.28616
B         -2.05700       -0.03249        0.77111
B          1.62973        0.91100        0.73680
B          0.86488        4.12327       -0.35767
B         -4.59866        0.44619        0.67595
B          1.26023        2.49490        0.30268
B         -4.52830        1.99912        0.03493
B         -0.60825        4.48394       -0.23404
B          2.38596        3.56050       -0.45368
B          2.84019        2.08796        0.12349
B          4.39435        1.42111       -0.15826
B          0.69710       -1.82894        1.23161
B          2.22172       -2.37046        0.63744
B          3.44637       -1.33874        0.37245
B          4.47349       -0.24570       -0.42476
B          4.76009       -1.88619       -0.70497
B          3.55288       -2.90275       -0.19223
B          2.30868       -3.88870       -0.29967
B          0.83377       -3.33363        0.50382
B          0.96853       -4.53326       -0.57447
B         -1.87828       -3.29377       -0.30516
B         -0.47404       -4.05996       -0.34924
B         -2.12541       -1.78661        0.49152
B         -3.14501       -2.47814       -0.64068
B         -3.49501       -0.80294        0.02829
B         -0.68016       -2.67450        0.74352
B         -1.68270        1.81352        0.64194
B          3.24888        0.37733        0.52998
B         -0.90950       -1.09117        1.39163
B          3.83543        2.98449       -0.86010
B         -5.79049        1.08698       -0.39545
B         -5.04714       -0.47971       -0.57534
B         -4.33196       -1.73861       -1.38519
B         -5.53939       -1.03289       -2.01251
B         -6.30073        0.15743       -1.48049
B          2.01617       -0.65951        1.23132
B         -0.96782        0.62875        1.78988
B          0.04973        1.52520        0.84281
B          5.06115        2.19970       -1.37227
B          5.56938        0.74629       -1.32540
B          5.69163       -0.83652       -1.25449
B          0.53776       -0.08509        1.66826
