45
isomer_3439.log	Energy: -113419.2644814
B         -2.66559       -1.42956       -0.93077
B         -2.74613       -3.12068        0.54587
B         -1.47817       -3.94346        0.08425
B          0.07038       -3.18432       -0.29779
B         -1.21546       -0.62307       -1.14990
B          1.71080       -0.81340       -0.84024
B          1.35416       -4.12659        0.33097
B         -3.87723       -0.50063       -0.30775
B          1.58513       -2.49728       -0.45042
B         -3.87999       -2.18357        0.01144
B         -0.06853       -4.64313        0.33229
B          2.80144       -3.37390        0.32455
B          3.04725       -1.81697       -0.19389
B          4.52091       -1.00822        0.08031
B          0.40416        1.86863       -1.16992
B          1.85747        2.50671       -0.57540
B          3.19904        1.62397       -0.25274
B          4.46973        0.63485        0.34392
B          4.43514        2.29896        0.79468
B          3.13677        3.16161        0.29710
B          1.82022        4.11297        0.23296
B          0.44569        3.40159       -0.55198
B          0.45650        4.78525        0.29548
B         -2.34865        3.49570       -0.11035
B         -0.94543        4.26212        0.03808
B         -2.47153        1.86349       -0.57848
B         -3.68241        2.71886        0.27690
B         -3.93579        1.13890       -0.28004
B         -1.07614        2.67421       -0.80708
B         -1.29702       -2.42361       -0.94278
B          3.30134       -0.09595       -0.62054
B         -1.13365        0.95341       -1.08682
B          4.17743       -2.61938        0.77361
B         -4.88522       -1.35567        0.94790
B         -4.57568        0.28238        0.98618
B         -4.86236        1.96655        0.97953
B         -5.80903        1.00522        1.77553
B         -5.72083       -0.49034        1.87970
B          1.81996        0.79768       -1.03220
B         -2.75817       -3.10748       -1.03362
B          0.23637       -1.71267       -1.05771
B          5.24069       -1.71237        1.34585
B          5.56782       -0.20258        1.36271
B          5.47923        1.35164        1.35146
B          0.29538        0.08013       -1.12079
