45
isomer_0344.log	Energy: -113352.8216164
B         -2.49915       -1.66813       -0.46315
B         -2.42749       -2.93550        0.87668
B         -1.11813       -3.83988        0.85347
B          0.09440       -3.08784       -0.33872
B         -1.20523       -0.57558       -0.94469
B          1.74989       -0.64224       -0.77094
B          1.59897       -3.98038        0.13517
B         -3.83282       -0.69161       -0.14415
B          1.69306       -2.34681       -0.54510
B         -3.79632       -2.16710        0.59764
B          0.29877       -4.43656        0.65108
B          2.99910       -3.22667        0.02573
B          3.16140       -1.64210       -0.45509
B          4.63713       -0.82212       -0.24336
B          0.39082        1.83141       -1.06463
B          1.80559        2.56440       -0.39056
B          3.19305        1.74920       -0.20153
B          4.54474        0.79601        0.21409
B          4.49296        2.45021        0.72953
B          3.11374        3.25946        0.42977
B          1.69472        4.05908        0.53021
B          0.34391        3.40116       -0.30754
B          0.28242        4.64635        0.67669
B         -2.47344        3.37156        0.02126
B         -1.10895        4.09905        0.29529
B         -2.48844        1.70792       -0.59435
B         -3.78444        2.58132        0.05831
B         -3.88292        0.98374       -0.35630
B         -1.09971        2.59749       -0.69108
B         -1.68082       -3.33419       -0.66571
B          3.29803        0.10553       -0.71574
B         -1.02773        1.00072       -1.03654
B          4.41676       -2.44346        0.35915
B         -5.16796       -1.40990        0.70405
B         -5.26904        0.14768       -0.02028
B         -5.22132        1.80009        0.36316
B         -6.36409        1.01769        0.93680
B         -6.26997       -0.42811        1.17430
B          1.80296        0.94936       -0.98182
B         -1.02711       -1.90328        0.39525
B          0.28487       -1.36252       -0.63430
B          5.47478       -1.53300        0.94174
B          5.80665       -0.02505        0.99552
B          5.65978        1.51756        1.09319
B         -1.09343       -2.13496       -1.49253
