45
isomer_3441.log	Energy: -113610.5220344
B          2.60465       -1.74711        0.48873
B          2.57186       -3.35216       -0.05507
B          1.15392       -4.19314       -0.13999
B         -0.28923       -3.40915        0.48697
B          1.18461       -0.89968        0.97393
B         -1.72454       -0.78219        0.71551
B         -1.67791       -4.22311       -0.20344
B          3.96105       -0.84782        0.21917
B         -1.70484       -2.57588        0.49088
B          3.93421       -2.51393       -0.32222
B         -0.25450       -4.79205       -0.33261
B         -3.04309       -3.33786       -0.21144
B         -3.12344       -1.74317        0.21296
B         -4.54766       -0.87209       -0.13057
B         -0.35160        1.85419        1.03000
B         -1.78148        2.54776        0.44227
B         -3.17231        1.70591        0.17206
B         -4.57334        0.78460       -0.22240
B         -4.46829        2.43779       -0.68885
B         -3.11142        3.30132       -0.32307
B         -1.76748        4.20373       -0.29716
B         -0.38239        3.45140        0.50090
B         -0.35284        4.79198       -0.36925
B          2.48543        3.40091        0.04861
B          1.08769        4.21645       -0.07425
B          2.51438        1.73272        0.47913
B          3.84151        2.50001       -0.22768
B          3.92865        0.87842        0.25941
B          1.15161        2.67084        0.66267
B          1.22831       -2.65782        0.62913
B         -3.24573       -0.02508        0.49260
B          1.10749        0.88864        0.98447
B         -4.42478       -2.53564       -0.61689
B          5.14256       -1.66493       -0.82681
B          5.16630        0.01960       -0.52983
B          5.10753        1.73136       -0.78754
B          6.20278        0.82113       -1.44790
B          6.22380       -0.68856       -1.48785
B         -1.75574        0.86155        0.78726
B          2.67387       -0.05028        0.99301
B         -0.31235       -1.75347        0.95475
B         -5.55719       -1.62834       -1.09246
B         -5.77481       -0.06046       -1.10906
B         -5.62110        1.51299       -1.14461
B         -0.25417        0.04063        0.61649
