45
isomer_3442.log	Energy: -113380.1713411
B          2.60440       -1.62337        0.60122
B          2.42131       -3.19393       -0.14435
B          0.99652       -3.94301       -0.21830
B         -0.48045       -3.29911        0.60681
B          1.25080       -0.84038        1.13843
B         -1.83406       -0.91088        1.18764
B         -1.73613       -3.90052       -0.65603
B          3.99596       -0.88569        0.20102
B         -2.17287       -2.80813        0.59915
B          3.77660       -2.40049       -0.34345
B         -0.36116       -4.44494       -0.57980
B         -3.09580       -3.06742       -0.74871
B         -3.08441       -1.57308       -0.06027
B         -4.32728       -0.54265       -0.58451
B         -0.14575        1.66412        0.73447
B         -1.57455        2.54403        0.63902
B         -2.99672        1.80216        0.34560
B         -4.47098        1.01758       -0.00359
B         -4.22241        2.69484       -0.43514
B         -2.84048        3.42769       -0.02972
B         -1.46253        4.21685       -0.07933
B         -0.08460        3.24723        0.24498
B         -0.03380        4.74933       -0.27335
B          2.71471        3.29629       -0.08977
B          1.37377        4.09614       -0.16467
B          2.73387        1.60199        0.61276
B          3.97881        2.42695       -0.23926
B          4.10362        0.85226        0.21447
B          1.34680        2.34498        0.22029
B          1.16322       -2.49169        0.57857
B         -3.16408        0.04685        0.49869
B          1.37349        0.80167        0.95842
B         -4.34525       -2.14555       -1.18240
B          5.17291       -1.70096       -0.79789
B          5.32104       -0.07429       -0.34876
B          5.29120        1.56235       -0.75582
B          6.28122        0.62882       -1.48779
B          6.25017       -0.86211       -1.47733
B         -1.62992        0.78387        0.89939
B         -0.18884       -0.03157        1.11288
B         -0.14423       -1.74407        1.41010
B         -5.42486       -1.15366       -1.57378
B         -5.57427        0.36911       -1.33810
B         -5.31272        1.86101       -1.08466
B         -1.44227       -2.39861        1.89287
