45
isomer_3443.log	Energy: -113323.0791874
B         -2.64364       -1.50723       -0.50824
B         -2.68761       -3.14229       -0.14865
B         -1.33629       -4.03203       -0.48592
B          0.33061       -3.58902       -0.84439
B         -1.30657       -0.71215       -1.06115
B          1.62422       -0.88426       -0.87240
B          1.22148       -4.06193        0.54683
B         -3.87350       -0.56266        0.01328
B          1.46141       -2.47358       -0.21868
B         -3.83824       -2.23270        0.33782
B         -0.15135       -4.64842        0.32013
B          2.57518       -3.19897        0.78121
B          2.85395       -1.72415        0.11784
B          4.24963       -0.86677        0.60501
B          0.35813        1.75985       -1.17845
B          1.81812        2.47661       -0.69861
B          3.16581        1.62961       -0.27789
B          4.53022        0.72402        0.15498
B          4.39759        2.42493        0.61639
B          3.12551        3.25879        0.04891
B          1.81095        4.14914       -0.05566
B          0.39319        3.38250       -0.76783
B          0.43402        4.80504       -0.02085
B         -2.39292        3.45576       -0.22022
B         -0.97581        4.24811       -0.21072
B         -2.52201        1.80128       -0.60850
B         -3.68972        2.69649        0.27177
B         -3.93475        1.07549       -0.11686
B         -1.12299        2.59061       -0.83238
B         -1.54993       -2.45592       -1.29569
B          3.19398       -0.09053       -0.48170
B         -1.20020        0.86380       -1.09208
B          3.93580       -2.39513        1.29923
B         -4.86880       -1.30814        1.26257
B         -4.46704        0.33483        1.25950
B         -4.87626        1.99373        1.04856
B         -5.77438        1.11572        1.91138
B         -5.69879       -0.39457        2.10115
B          1.71444        0.76737       -0.85568
B         -0.54412       -3.26359       -2.07566
B          0.20043       -1.84452       -1.33351
B          5.08951       -1.54113        1.78449
B          5.43207       -0.04381        1.55844
B          5.33607        1.48024        1.32874
B          0.20261       -0.06038       -1.10652
