45
isomer_3444.log	Energy: -113442.8080982
B          2.36927       -1.43955        0.31888
B          2.46582       -3.13552        0.16574
B          1.23407       -4.05025        0.25612
B         -0.19971       -3.40891        0.96058
B          1.07878       -0.75448        0.86151
B         -1.65156       -0.87408        0.97331
B         -1.44131       -4.19829       -0.01193
B          3.75805       -0.69349       -0.02132
B         -1.09044       -2.32092       -0.07339
B          3.76852       -2.27890       -0.25375
B         -0.10651       -4.83726        0.15873
B         -2.56330       -3.26770       -0.54376
B         -2.73218       -1.77472       -0.04125
B         -4.12472       -0.87750       -0.59787
B         -0.40218        1.81750        1.07666
B         -1.82600        2.54606        0.54971
B         -3.17788        1.64514        0.30190
B         -4.51363        0.67607       -0.10056
B         -4.41278        2.38080       -0.62178
B         -3.17886        3.29006       -0.10728
B         -1.85257        4.18835       -0.01918
B         -0.41383        3.47534        0.75271
B         -0.45603        4.79174       -0.14275
B          2.37880        3.50793        0.00979
B          1.00067        4.26123        0.04782
B          2.45179        1.78136        0.60080
B          3.64431        2.65739       -0.32263
B          3.77577        1.07477        0.03006
B          1.06189        2.61854        0.55476
B          1.34616       -2.57134        1.44343
B         -3.15081       -0.11482        0.53931
B          1.13026        0.95314        0.98041
B         -3.88416       -2.50544       -1.12780
B          5.02999       -1.46416       -0.88305
B          4.92243        0.21307       -0.72846
B          4.96466        1.86584       -0.90858
B          6.05694        0.96466       -1.59546
B          6.08710       -0.53949       -1.57407
B         -1.74300        0.85005        0.84714
B         -0.29992        0.05396        1.36956
B         -0.20860       -1.77178        1.38821
B         -5.08095       -1.68379       -1.57189
B         -5.41774       -0.16556       -1.45378
B         -5.32681        1.37076       -1.29122
B          0.73023       -2.25580       -0.19536
