45
isomer_3445.log	Energy: -113385.8447929
B         -2.07541       -1.44935       -0.22105
B         -2.59976       -3.16969       -0.48675
B         -1.47400       -4.29598       -0.48171
B          0.08333       -3.36002       -1.03431
B         -0.86897       -0.55489       -1.18155
B          1.08427       -0.66275       -0.79236
B          1.38854       -4.07196        0.03577
B         -3.47431       -0.58870        0.15472
B          1.40520       -2.37218       -0.49188
B         -3.57973       -2.22756        0.33679
B         -0.08600       -4.61312        0.03142
B          2.65546       -3.25307        0.21806
B          2.82738       -1.61205       -0.25571
B          4.10314       -0.85233        0.46266
B          0.37218        1.80617       -1.24653
B          1.74388        2.56331       -0.60764
B          3.08878        1.70448       -0.25314
B          4.35892        0.79421        0.38467
B          4.18815        2.42907        0.90323
B          3.02010        3.31229        0.21496
B          1.71738        4.19997        0.04498
B          0.36320        3.52958       -0.84975
B          0.31445        4.84257        0.05130
B         -2.45204        3.56190       -0.33712
B         -1.07269        4.32261       -0.35354
B         -2.41871        1.87739       -0.71905
B         -3.64535        2.69811        0.06764
B         -3.58264        1.02768       -0.00200
B         -1.06026        2.65360       -1.07678
B         -1.32548       -2.36996       -1.43362
B          3.05520        0.00477       -0.51100
B         -1.12846        1.03229       -1.29555
B          3.94518       -2.47226        0.87909
B         -4.60572       -1.41835        1.19330
B         -4.25380        0.29390        1.33537
B         -4.73587        1.87615        1.00882
B         -5.64870        1.03004        1.86292
B         -5.64043       -0.45937        1.83143
B          1.65206        0.88116       -0.86728
B         -1.03574       -2.94095        0.37427
B          0.24473       -1.82638       -1.71976
B          5.01601       -1.64237        1.52717
B          5.25732       -0.10293        1.61158
B          5.10927        1.43614        1.63252
B         -0.23007       -1.56117        0.05541
