45
isomer_3446.log	Energy: -113441.8903518
B          2.46592       -1.74314        0.39696
B          2.63946       -3.19211       -0.80387
B          1.36047       -4.09888       -0.81918
B          0.06166       -3.24255        0.39495
B          1.27925       -0.63781        1.03066
B         -1.68990       -0.78305        1.01378
B         -1.40027       -3.97531       -0.23964
B          3.69052       -0.65811        0.00796
B         -1.56589       -2.48395        0.57341
B          3.71933       -2.13645       -0.66179
B         -0.07337       -4.49625       -0.66551
B         -2.84593       -3.26395       -0.16018
B         -3.03568       -1.73383        0.32654
B         -4.41432       -0.89170       -0.21540
B         -0.39206        1.88220        0.97248
B         -1.83623        2.55510        0.45473
B         -3.20771        1.69056        0.16620
B         -4.64032        0.74476        0.03739
B         -4.48387        2.37677       -0.70033
B         -3.17726        3.25622       -0.35799
B         -1.81247        4.13300       -0.43384
B         -0.42506        3.42255        0.32734
B         -0.42937        4.74535       -0.57447
B          2.39279        3.43857       -0.09709
B          1.00268        4.20531       -0.28183
B          2.46506        1.80993        0.49409
B          3.81482        2.67769       -0.12899
B          3.75025        1.00701        0.03045
B          1.10155        2.67916        0.57871
B          1.80552       -3.42355        0.58630
B         -3.25788       -0.01649        0.65578
B          1.14993        0.95534        1.04805
B         -4.27781       -2.54999       -0.59238
B          5.14990       -1.32761       -0.71296
B          5.18645        0.21615       -0.08929
B          5.14073        1.91941       -0.49493
B          6.23832        0.99511       -1.08548
B          6.35271       -0.48810       -1.04972
B         -1.77230        0.86653        0.72568
B          1.16019       -2.29051        1.42285
B         -0.28507       -1.65493        1.30810
B         -5.45190       -1.73732       -1.08630
B         -5.69248       -0.19243       -1.11444
B         -5.50882        1.34698       -1.16020
B         -0.25156        0.09434        0.97338
