45
isomer_3449.log	Energy: -113241.7777253
B          2.51685        1.66936       -0.51265
B          2.47880        3.33948        0.00500
B          1.07834        4.12797        0.13417
B         -0.31250        3.40138       -0.45547
B          1.11095        0.88965       -1.01615
B         -1.65312        0.84096       -0.97690
B         -1.73598        4.11814        0.28590
B          3.94114        0.93241       -0.26461
B         -1.71307        2.48735       -0.39156
B          3.79315        2.52273        0.16679
B         -0.31781        4.71115        0.43166
B         -3.06431        3.25239        0.28796
B         -3.09445        1.65946       -0.27281
B         -4.40760        0.77248        0.23773
B         -0.15149       -1.73909       -1.11508
B         -1.50778       -2.44409       -0.28862
B         -2.93726       -1.68606       -0.20888
B         -4.31566       -0.84796        0.26094
B         -4.21112       -2.51619        0.67432
B         -2.85229       -3.29347        0.39596
B         -1.49866       -4.10015        0.36712
B         -0.12091       -3.34746       -0.45479
B         -0.06504       -4.66377        0.42293
B          2.70528       -3.23804       -0.11436
B          1.30874       -4.05579        0.06621
B          2.68569       -1.57875       -0.60329
B          4.02717       -2.36287        0.07565
B          4.03370       -0.76811       -0.29640
B          1.38017       -2.53004       -0.76278
B          1.19091        2.59564       -0.68320
B         -3.13289        0.01875       -0.62150
B          1.27637       -0.81364       -1.07335
B         -4.45049        2.43942        0.58829
B          5.11419        1.76624        0.74804
B          5.16333        0.14337        0.45525
B          5.27402       -1.52176        0.69222
B          6.23623       -0.59705        1.44473
B          6.16639        0.90782        1.47517
B         -1.60716       -0.78653       -1.03112
B         -1.20469       -1.12975        0.33121
B         -0.31429        1.77595       -1.04370
B         -5.60726        1.51741        0.94436
B         -5.69639       -0.07828        0.99416
B         -5.43328       -1.64530        1.02704
B         -0.07589       -0.14536       -0.32558
