45
isomer_0345.log	Energy: -111920.2493096
B          2.60991       -1.66703        0.30765
B          2.60558       -3.29834       -0.10027
B          1.20063       -4.13007       -0.34755
B         -0.25569       -3.31343        0.22677
B          1.14901       -0.78662        0.63862
B         -1.72490       -0.82971        0.74324
B         -1.64750       -4.09291       -0.46578
B          4.06442       -0.78566        0.23898
B         -1.64301       -2.42390        0.15479
B          4.00859       -2.46985       -0.24619
B         -0.22095       -4.74803       -0.62631
B         -3.08292       -3.25183       -0.45589
B         -3.11212       -1.64041        0.13832
B         -4.57856       -0.82544       -0.33438
B         -0.30071        1.73104        0.84347
B         -1.69042        2.43087        0.23875
B         -3.14395        1.61990        0.19471
B         -4.59437        0.79329       -0.30638
B         -4.44370        2.35650       -0.52576
B         -3.14642        3.25117       -0.34343
B         -1.72769        4.11994       -0.32375
B         -0.32070        3.34429        0.34191
B         -0.31425        4.80793       -0.46105
B          2.54021        3.39638        0.01551
B          1.11921        4.20858       -0.20334
B          2.57652        1.75234        0.36679
B          3.95908        2.60098       -0.15850
B          4.04794        0.90242        0.26817
B          1.13957        2.55953        0.55328
B          1.18905       -2.50808        0.46564
B         -3.20765       -0.11789        0.56191
B          1.13320        0.83266        0.66663
B         -4.39748       -2.37690       -0.60762
B          5.32142       -1.64350       -0.74514
B          5.30424       -0.01671       -0.48304
B          5.28763        1.81815       -0.68528
B          6.45803        0.88542       -1.31174
B          6.47319       -0.66700       -1.33858
B         -1.74097        0.81600        0.77170
B          0.97911       -1.38367        3.06461
B         -0.26703       -1.71840        0.78382
B         -5.91439       -1.67721       -0.79932
B         -6.12661        0.03489       -0.83338
B         -5.94577        1.76657       -0.81039
B          0.38120        0.34374        0.92782
