45
isomer_3450.log	Energy: -113666.6537755
B          2.46580        1.79710       -0.45655
B          2.35681        3.36234        0.09994
B          0.96282        4.18589        0.13222
B         -0.41765        3.39144       -0.52905
B          1.08714        0.88169       -1.03527
B         -1.83266        0.81629       -0.96215
B         -1.84036        4.14018        0.20506
B          3.86317        0.92972       -0.01157
B         -1.86106        2.52215       -0.53605
B          3.73885        2.56615        0.41168
B         -0.44238        4.76148        0.32871
B         -3.16899        3.24129        0.23255
B         -3.21096        1.63621       -0.28727
B         -4.55624        0.71990        0.23562
B         -0.28721       -1.80620       -1.07260
B         -1.66329       -2.56482       -0.43102
B         -3.08114       -1.77917       -0.15079
B         -4.53296       -0.97469        0.13617
B         -4.25555       -2.57025        0.81385
B         -2.92713       -3.38307        0.31321
B         -1.54876       -4.18278        0.26472
B         -0.20535       -3.40729       -0.55222
B         -0.12572       -4.74679        0.34357
B          2.58134       -3.26183       -0.00352
B          1.24420       -4.14782        0.07138
B          2.56855       -1.67418       -0.54974
B          3.93732       -2.42573        0.20903
B          3.96313       -0.79107       -0.16588
B          1.22462       -2.54228       -0.76769
B          1.07644        2.61578       -0.74203
B         -3.30048       -0.06557       -0.62156
B         -0.36603        0.01581       -1.09502
B         -4.47500        2.38267        0.70883
B          5.02299        1.77431        0.93669
B          5.26958        0.11039        0.42661
B          5.22383       -1.60318        0.69704
B          6.22660       -0.65987        1.45252
B          6.12581        0.85211        1.55991
B         -1.69780       -0.84951       -0.73279
B          2.55517        0.04911       -0.65028
B         -0.40978        1.82523       -1.13119
B         -5.53346        1.43204        1.26201
B         -5.61172       -0.12441        1.31994
B         -5.30675       -1.64578        1.38000
B          1.16428       -0.80300       -1.05702
