45
isomer_3451.log	Energy: -113675.8860990
B          2.50977       -1.75932        0.48854
B          2.42868       -3.33444       -0.03957
B          1.04887       -4.15702       -0.12299
B         -0.34999       -3.38452        0.51345
B          1.12997       -0.84868        1.04151
B         -1.78627       -0.83065        0.91135
B         -1.74693       -4.14426       -0.24697
B          3.95678       -0.90966        0.21615
B         -1.80108       -2.53262        0.48773
B          3.81087       -2.53664       -0.29180
B         -0.34035       -4.74564       -0.35263
B         -3.09091       -3.28104       -0.26669
B         -3.17311       -1.68118        0.26002
B         -4.53196       -0.79858       -0.23753
B         -0.31332        1.83110        1.08861
B         -1.72529        2.55092        0.43168
B         -3.12959        1.73279        0.22144
B         -4.54738        0.89313       -0.14457
B         -4.32759        2.49890       -0.76935
B         -3.00970        3.33993       -0.27796
B         -1.64318        4.16899       -0.25912
B         -0.26979        3.40252        0.53748
B         -0.22118        4.74754       -0.35447
B          2.51259        3.30408       -0.03768
B          1.15550        4.14897       -0.11033
B          2.56247        1.73101        0.52989
B          3.86885        2.48564       -0.27655
B          3.98382        0.84627        0.22453
B          1.18512        2.57790        0.78875
B          1.12004       -2.58968        0.76511
B         -3.29374        0.01529        0.60952
B          1.16987        0.85094        1.06845
B         -4.40621       -2.44510       -0.74959
B          5.06167       -1.73793       -0.86357
B          5.19551       -0.04351       -0.52257
B          5.10398        1.65257       -0.84566
B          6.10514        0.70762       -1.60507
B          6.08547       -0.81311       -1.61161
B         -1.71815        0.84311        0.78823
B          2.60975       -0.01543        0.74629
B         -0.36872       -1.82507        1.11643
B         -5.47296       -1.51950       -1.30148
B         -5.62044        0.03241       -1.30415
B         -5.37413        1.56870       -1.33719
B         -0.34276        0.00326        1.09397
