45
isomer_3452.log	Energy: -112512.5674044
B         -2.60699        1.76152        0.39931
B         -2.59010        3.39960        0.02921
B         -1.18102        4.22522       -0.19991
B          0.26485        3.39201        0.34854
B         -1.15995        0.86716        0.70478
B          1.71751        0.88614        0.80348
B          1.65727        4.17671       -0.32654
B         -4.05815        0.89867        0.31155
B          1.64677        2.49818        0.25266
B         -3.98665        2.58576       -0.13056
B          0.23666        4.83333       -0.46489
B          3.08412        3.32721       -0.34062
B          3.10818        1.70447        0.21220
B          4.56928        0.88662       -0.28070
B          0.26366       -1.64320        0.86216
B          1.66826       -2.36067        0.21160
B          3.11899       -1.56139        0.19103
B          4.57092       -0.73206       -0.28940
B          4.41355       -2.29361       -0.55297
B          3.10198       -3.18097       -0.38905
B          1.67069       -4.04928       -0.39007
B          0.27064       -3.27441        0.29742
B          0.24723       -4.71056       -0.53359
B         -2.59105       -3.28182       -0.01995
B         -1.18213       -4.10868       -0.26185
B         -2.61343       -1.64037        0.37241
B         -3.99134       -2.46251       -0.16654
B         -4.05994       -0.78681        0.29884
B         -1.19118       -2.47133        0.53334
B         -1.18572        2.58912        0.57193
B          3.19527        0.16560        0.59978
B         -1.16824       -0.72557        0.68956
B          4.40628        2.45230       -0.52146
B         -5.30399        1.78515       -0.64457
B         -5.30070        0.15596       -0.42163
B         -5.30531       -1.65462       -0.66700
B         -6.45375       -0.70746       -1.26499
B         -6.45971        0.83880       -1.25757
B          1.72438       -0.75274        0.79547
B         -0.89816       -1.00656        2.27646
B          0.26481        1.78322        0.86795
B          5.89356        1.72504       -0.72599
B          6.08904        0.03106       -0.79951
B          5.89658       -1.67345       -0.81740
B          0.20705       -1.89080       -0.16291
