45
isomer_3453.log	Energy: -113458.7499255
B         -2.56785       -1.60786       -0.43811
B         -2.52391       -3.31385        0.04813
B         -1.22632       -4.12586       -0.18895
B          0.23213       -3.33118       -0.94183
B         -1.21623       -0.74040       -0.83401
B          1.58061       -0.75418       -0.52001
B          1.55510       -4.14104        0.00749
B         -3.89339       -0.85309       -0.10302
B          1.40717       -2.41343       -0.04695
B         -3.80462       -2.45271        0.31155
B          0.18053       -4.71723       -0.07796
B          2.87245       -3.28646        0.30302
B          3.00023       -1.71921       -0.10932
B          4.46181       -0.86789        0.10979
B          0.32620        1.81907       -1.21082
B          1.70965        2.56993       -0.47612
B          3.08767        1.74650       -0.22377
B          4.35956        0.78787        0.39866
B          4.33456        2.46499        0.76474
B          3.01586        3.32267        0.26814
B          1.64782        4.15911        0.19875
B          0.27413        3.43688       -0.65428
B          0.22404        4.70750        0.31558
B         -2.53749        3.38257       -0.05396
B         -1.18897        4.14657        0.02056
B         -2.54903        1.66158       -0.63463
B         -3.79794        2.51453        0.20233
B         -3.90613        0.91333       -0.15280
B         -1.20094        2.57692       -0.74476
B         -1.08683       -2.40848       -0.26005
B          3.15037       -0.00063       -0.50035
B         -1.20240        0.93727       -1.06983
B          4.20708       -2.50262        0.76486
B         -5.11846       -1.60907        0.86910
B         -5.15238        0.03639        0.44993
B         -5.09242        1.69057        0.77269
B         -6.12629        0.79740        1.52183
B         -6.13219       -0.69945        1.55584
B          1.74923        0.92430       -0.98527
B          0.09949       -1.25368        0.23167
B          0.28918       -1.73506       -1.46059
B          5.31160       -1.56279        1.26630
B          5.57219       -0.04044        1.27316
B          5.42753        1.53666        1.27938
B          0.24761        0.00402       -1.24612
