45
isomer_3454.log	Energy: -113403.8160115
B         -2.39338        1.91399        0.40248
B         -2.29710        3.51516       -0.10844
B         -0.89289        4.27750       -0.14180
B          0.49257        3.44995        0.48288
B         -1.04516        1.04729        1.01805
B          1.70650        0.77538        0.84469
B          1.90544        4.13288       -0.18321
B         -3.77572        1.06826        0.05742
B          1.84890        2.47003        0.51548
B         -3.67491        2.72235       -0.39199
B          0.55045        4.81197       -0.34411
B          3.22446        3.20166       -0.14267
B          3.20553        1.61229        0.26638
B          4.55509        0.67404       -0.15318
B          0.22814       -1.76926        1.03864
B          1.56119       -2.50710        0.31044
B          3.02445       -1.77946        0.14764
B          4.49988       -0.98046       -0.09539
B          4.20789       -2.51832       -0.83965
B          2.85031       -3.28755       -0.46279
B          1.47611       -4.09941       -0.50562
B          0.17136       -3.41702        0.32365
B          0.09421       -4.70949       -0.61442
B         -2.56262       -3.23289       -0.09752
B         -1.30685       -4.12751       -0.26458
B         -2.52643       -1.61382        0.83531
B         -3.74105       -2.32546       -0.23541
B         -3.79104       -0.72160        0.17266
B         -1.27542       -2.92434        0.93902
B         -1.01091        2.71999        0.66603
B          3.17027       -0.09422        0.55782
B         -1.05651       -0.52607        1.28400
B          4.53097        2.35323       -0.57767
B         -4.90063        1.88995       -0.95314
B         -5.09342        0.19725       -0.50977
B         -4.99440       -1.47913       -0.82025
B         -5.99195       -0.58205       -1.59709
B         -5.91599        0.92566       -1.69338
B          1.58583       -0.85713        0.75130
B         -1.30336       -1.84543        2.02447
B          0.42800        1.78706        1.01557
B          5.62038        1.41874       -1.07783
B          5.70417       -0.12862       -1.16358
B          5.36066       -1.62673       -1.28599
B         -2.45300        0.18843        0.60555
