45
isomer_3455.log	Energy: -113675.8863951
B         -2.50945        1.75924        0.48841
B         -2.42838        3.33429       -0.03977
B         -1.04881        4.15717       -0.12262
B          0.34985        3.38497        0.51466
B         -1.13030        0.84883        1.04313
B          1.78511        0.83063        0.90989
B          1.74682        4.14450       -0.24619
B         -3.95651        0.90961        0.21547
B          1.80123        2.53298        0.48823
B         -3.81032        2.53674       -0.29259
B          0.34019        4.74578       -0.35226
B          3.09081        3.28112       -0.26619
B          3.17272        1.68078        0.25968
B          4.53235        0.79910       -0.23637
B          0.31358       -1.83073        1.08809
B          1.72542       -2.55111        0.43184
B          3.12954       -1.73270        0.22170
B          4.54646       -0.89285       -0.14690
B          4.32698       -2.49886       -0.77069
B          3.00937       -3.33961       -0.27840
B          1.64322       -4.16946       -0.25837
B          0.26985       -3.40263        0.53840
B          0.22126       -4.74804       -0.35300
B         -2.51259       -3.30421       -0.03660
B         -1.15540       -4.14932       -0.10888
B         -2.56236       -1.73117        0.53001
B         -3.86866       -2.48572       -0.27629
B         -3.98321       -0.84604        0.22380
B         -1.18505       -2.57775        0.78931
B         -1.12015        2.58993        0.76640
B          3.29375       -0.01568        0.60935
B         -2.60950        0.01572        0.74536
B          4.40573        2.44504       -0.74996
B         -5.06116        1.73775       -0.86446
B         -5.19532        0.04335       -0.52313
B         -5.10349       -1.65278       -0.84614
B         -6.10412       -0.70801       -1.60630
B         -6.08468        0.81281       -1.61274
B          1.71856       -0.84323        0.78997
B          0.34272       -0.00272        1.09420
B          0.36843        1.82556        1.11725
B          5.47180        1.51921       -1.30243
B          5.61945       -0.03269       -1.30512
B          5.37392       -1.56912       -1.33846
B         -1.16965       -0.85070        1.06872
