45
isomer_3456.log	Energy: -113323.0892991
B          2.64188       -1.50839        0.50605
B          2.68476       -3.14368        0.14632
B          1.33366       -4.03352        0.48763
B         -0.33260       -3.58667        0.84526
B          1.30622       -0.71359        1.06295
B         -1.62409       -0.88271        0.87135
B         -1.22549       -4.06256       -0.54371
B          3.87369       -0.56567       -0.01599
B         -1.46318       -2.47241        0.21890
B          3.83465       -2.23487       -0.34301
B          0.14725       -4.64980       -0.31616
B         -2.57793       -3.19854       -0.77944
B         -2.85527       -1.72219       -0.11757
B         -4.25047       -0.86460       -0.60496
B         -0.35677        1.76025        1.18144
B         -1.81563        2.47717        0.69993
B         -3.16236        1.63084        0.27390
B         -4.52908        0.72693       -0.15627
B         -4.39430        2.42698       -0.61884
B         -3.12165        3.25990       -0.05132
B         -1.80708        4.14956        0.05466
B         -0.39082        3.38269        0.76896
B         -0.43010        4.80519        0.02160
B          2.39554        3.45428        0.22329
B          0.97919        4.24744        0.21293
B          2.52327        1.79935        0.61115
B          3.69100        2.69420       -0.26926
B          3.93431        1.07242        0.11629
B          1.12476        2.58990        0.83625
B          1.55100       -2.45831        1.29596
B         -3.19429       -0.08893        0.48081
B          1.20108        0.86306        1.09576
B         -3.93745       -2.39337       -1.29884
B          4.86623       -1.30997       -1.26667
B          4.46504        0.33347       -1.26168
B          4.87627        1.99153       -1.04888
B          5.77245        1.11470       -1.91405
B          5.69635       -0.39577       -2.10437
B         -1.71401        0.76826        0.85634
B          0.54222       -3.26216        2.07666
B         -0.20081       -1.84381        1.33451
B         -5.08960       -1.53849       -1.78548
B         -5.43130       -0.04068       -1.55980
B         -5.33430        1.48299       -1.33049
B         -0.20224       -0.06043        1.10787
