45
isomer_3457.log	Energy: -113397.1573862
B         -2.67586       -1.38248       -0.54940
B         -2.60066       -3.06794        0.10011
B         -1.51639       -3.96903        0.81061
B          0.11460       -3.23955       -0.58998
B         -1.26499       -0.64285       -1.11136
B          1.70953       -0.80850       -0.73087
B          1.42045       -4.02773        0.29524
B         -4.04275       -0.59868       -0.31091
B          1.62801       -2.51930       -0.46458
B         -3.97674       -2.14725        0.22257
B         -0.07427       -4.43685        0.55335
B          2.86145       -3.32467        0.30840
B          3.09237       -1.74884       -0.23684
B          4.58046       -0.96589       -0.00542
B          0.43147        1.81882       -1.11519
B          1.89434        2.54876       -0.43714
B          3.23779        1.66091       -0.20316
B          4.58343        0.70607        0.23272
B          4.53595        2.37443        0.73581
B          3.22026        3.24403        0.31683
B          1.84447        4.08662        0.32498
B          0.44392        3.41559       -0.49445
B          0.42961        4.67772        0.47255
B         -2.39026        3.44719       -0.04907
B         -0.99451        4.16259        0.13229
B         -2.50417        1.80108       -0.56198
B         -3.76645        2.63658        0.22604
B         -3.93982        1.06163       -0.26453
B         -1.10962        2.65154       -0.70610
B         -1.35811       -2.28903       -0.88685
B          3.30378       -0.03420       -0.62194
B         -1.14189        0.97488       -1.07748
B          4.24941       -2.55261        0.70246
B         -5.25593       -1.41935        0.73364
B         -5.24054        0.28259        0.46727
B         -5.03059        1.92640        0.82533
B         -6.15797        1.03330        1.53011
B         -6.28286       -0.45616        1.44889
B          1.86870        0.90381       -0.94930
B         -1.32418       -3.95838       -0.75915
B          0.25100       -1.55063       -0.93573
B          5.35189       -1.65599        1.22737
B          5.69377       -0.15284        1.20606
B          5.59677        1.40931        1.23424
B          0.30514        0.12490       -1.04544
