45
isomer_3458.log	Energy: -113437.4914188
B          2.44957       -1.73309        0.42730
B          2.59601       -3.19236       -0.82370
B          1.26451       -4.01752       -0.87411
B          0.02801       -3.24439        0.37824
B          1.25710       -0.65847        1.01528
B         -1.70241       -0.77496        1.02572
B         -1.47771       -3.96609       -0.25099
B          3.76261       -0.73150        0.11319
B         -1.61140       -2.48529        0.58345
B          3.70679       -2.16471       -0.64297
B         -0.15871       -4.45267       -0.72975
B         -2.90319       -3.24394       -0.13388
B         -3.06920       -1.70118        0.37922
B         -4.42365       -0.85140       -0.19540
B         -0.36726        1.86164        0.93715
B         -1.79852        2.55071        0.36995
B         -3.18963        1.72373        0.15154
B         -4.62134        0.79201        0.02919
B         -4.44571        2.42316       -0.72266
B         -3.12942        3.29925       -0.38693
B         -1.74550        4.15582       -0.44125
B         -0.36158        3.40175        0.27269
B         -0.34312        4.75269       -0.56986
B          2.44409        3.39412       -0.05945
B          1.08804        4.18597       -0.25751
B          2.46250        1.72068        0.51947
B          3.83707        2.60896       -0.04115
B          3.80633        0.96254        0.20122
B          1.14122        2.65323        0.62704
B          1.77439       -3.38448        0.55491
B         -3.27133        0.01100        0.68925
B          1.14531        0.93396        1.04159
B         -4.31973       -2.50875       -0.56337
B          5.14282       -1.37420       -0.75635
B          5.20205        0.17014       -0.12274
B          5.15972        1.86360       -0.45832
B          6.21614        0.98674       -1.15426
B          6.29886       -0.50518       -1.18691
B         -1.75000        0.87184        0.70100
B          1.11889       -2.31848        1.45390
B         -0.31052       -1.67555        1.31911
B         -5.47254       -1.68155       -1.07018
B         -5.68435       -0.12929       -1.10988
B         -5.48804        1.40450       -1.16773
B         -0.25717        0.06703        0.92890
