45
isomer_3459.log	Energy: -113665.4688601
B          2.58438       -1.73790        0.55068
B          2.53065       -3.35382        0.01487
B          1.13467       -4.11760       -0.06820
B         -0.31679       -3.40052        0.67458
B          1.15158       -0.85935        0.86619
B         -1.79267       -0.88510        0.82603
B         -1.72921       -4.11226       -0.19161
B          3.99682       -0.88503        0.20135
B         -1.80465       -2.56553        0.46489
B          3.87164       -2.51831       -0.27027
B         -0.28460       -4.62018       -0.35969
B         -3.10739       -3.32125       -0.23262
B         -3.19559       -1.69839        0.35450
B         -4.53921       -0.86546       -0.26206
B         -0.34274        1.74361        1.09490
B         -1.80392        2.56585        0.46418
B         -3.19476        1.69865        0.35362
B         -4.53871        0.86596       -0.26224
B         -4.40449        2.49114       -0.74493
B         -3.10658        3.32155       -0.23302
B         -1.72833        4.11226       -0.19208
B         -0.31637        3.40104        0.67608
B         -0.28342        4.61954       -0.35995
B          2.53138        3.35383        0.01531
B          1.13586        4.11773       -0.06804
B          2.58485        1.73793        0.55096
B          3.87186        2.51770       -0.27079
B          3.99676        0.88453        0.20038
B          1.14168        2.53313        0.55912
B          1.14152       -2.53263        0.55882
B         -3.28472        0.00018        0.56762
B          1.15204        0.86022        0.86658
B         -4.40529       -2.49091       -0.74416
B          5.12217       -1.69820       -0.83590
B          5.24679       -0.00053       -0.49649
B          5.12193        1.69705       -0.83700
B          6.12714        0.75715       -1.60080
B          6.12765       -0.75871       -1.60002
B         -1.79192        0.88525        0.82532
B          2.63428        0.00007        0.76846
B         -0.34325       -1.74310        1.09419
B         -5.45432       -1.56482       -1.35260
B         -5.61938        0.00018       -1.34421
B         -5.45384        1.56511       -1.35282
B         -0.36351       -0.00007        1.13087
