45
isomer_0346.log	Energy: -110093.4842869
B         -2.59888       -1.61229       -0.37029
B         -2.61219       -3.24630        0.02647
B         -1.21637       -4.09426        0.27034
B          0.24933       -3.28890       -0.29600
B         -1.12836       -0.74487       -0.69285
B          1.74513       -0.81712       -0.79308
B          1.63178       -4.08752        0.39347
B         -4.04428       -0.71633       -0.29796
B          1.64569       -2.41436       -0.21568
B         -4.00676       -2.40428        0.17577
B          0.19823       -4.72885        0.54719
B          3.07588       -3.26137        0.39166
B          3.12282       -1.64632       -0.19147
B          4.59684       -0.84988        0.28919
B          0.34778        1.75892       -0.87811
B          1.74365        2.44012       -0.26635
B          3.18861        1.61379       -0.22550
B          4.62951        0.76874        0.27229
B          4.49471        2.33191        0.50211
B          3.20710        3.24124        0.32379
B          1.79751        4.12483        0.30774
B          0.38367        3.36841       -0.36549
B          0.39106        4.82653        0.44745
B         -2.47709        3.44802       -0.04341
B         -1.04811        4.24388        0.18331
B         -2.52988        1.80687       -0.40598
B         -3.90444        2.66624        0.12284
B         -4.01021        0.97165       -0.31558
B         -1.08431        2.60033       -0.58461
B         -1.18657       -2.46697       -0.53172
B          3.23488       -0.12202       -0.60447
B         -1.09568        0.87430       -0.70975
B          4.39919       -2.40120        0.55152
B         -5.31179       -1.56775        0.67822
B         -5.27727        0.06053        0.42728
B         -5.24194        1.89369        0.64209
B         -6.42303        0.96893        1.26025
B         -6.45436       -0.58339        1.27645
B          1.77834        0.82848       -0.81025
B         -1.69823       -2.38572       -1.03195
B          0.27817       -1.69032       -0.84211
B          5.92296       -1.71865        0.75047
B          6.15289       -0.00912        0.79658
B          5.99009        1.72446        0.78515
B         -0.85606        0.29591       -0.94903
