45
isomer_3460.log	Energy: -113675.8856396
B         -2.50890       -1.76029       -0.48876
B         -2.42636       -3.33489        0.04080
B         -1.04642       -4.15729        0.12334
B          0.35175       -3.38486       -0.51458
B         -2.60947       -0.01685       -0.74646
B          1.78632       -0.83019       -0.91111
B          1.74910       -4.14404        0.24588
B         -3.95592       -0.91109       -0.21509
B          1.80275       -2.53258       -0.48916
B         -3.80869       -2.53764        0.29408
B          0.34278       -4.74585        0.35197
B          3.09273       -3.27998        0.26584
B          3.17355       -1.67962       -0.26002
B          4.53260       -0.79716        0.23699
B          0.31250        1.83066       -1.08686
B          1.72371        2.55134       -0.42979
B          3.12853        1.73377       -0.22098
B          4.54643        0.89482        0.14584
B          4.32561        2.50014        0.77109
B          3.00758        3.34081        0.27933
B          1.64096        4.16996        0.25895
B          0.26817        3.40294       -0.53834
B          0.21859        4.74801        0.35339
B         -2.51458        3.30354        0.03590
B         -1.15784        4.14905        0.10851
B         -2.56370        1.73019       -0.53114
B         -3.87029        2.48443        0.27512
B         -3.98420        0.84460       -0.22485
B         -1.18644        2.57756       -0.78959
B         -1.11874       -2.59015       -0.76519
B          3.29347        0.01674       -0.60915
B         -1.17048        0.85093       -1.06917
B          4.40752       -2.44369        0.74905
B         -5.05993       -1.73936        0.86566
B         -5.19520       -0.04534        0.52333
B         -5.10506        1.65109        0.84466
B         -6.10473        0.70610        1.60584
B         -6.08396       -0.81464        1.61360
B          1.71734        0.84349       -0.78817
B         -1.13030       -0.84871       -1.04288
B          0.36979       -1.82564       -1.11767
B          5.47363       -1.51764        1.30120
B          5.62007        0.03437        1.30447
B          5.37302        1.57055        1.33849
B          0.34274        0.00242       -1.09441
