45
isomer_3461.log	Energy: -113357.7896860
B         -2.67215        1.64160        0.49638
B         -2.63443        3.22362       -0.22569
B         -1.25567        4.05044       -0.40484
B          0.19444        3.33892        0.24219
B         -1.27498        0.78855        0.81238
B          1.68713        0.86604        0.66793
B          1.59022        4.14697       -0.43586
B         -4.04017        0.81484        0.29983
B          1.66912        2.55973        0.30781
B         -4.02302        2.42166       -0.16184
B          0.16500        4.65297       -0.65130
B          3.00851        3.35112       -0.28651
B          3.12072        1.79953        0.28689
B          4.57709        0.92776        0.20334
B          0.28399       -1.66298        1.26777
B          1.67595       -2.69338        0.71723
B          3.05463       -1.71856        0.32344
B          4.47123       -0.71645       -0.08195
B          4.48248       -2.34529       -0.50360
B          3.07483       -3.12329       -0.37686
B          1.71941       -3.53481       -0.96922
B          0.28684       -3.54468        0.00344
B          0.33605       -3.69678       -1.59460
B         -2.42655       -2.93361       -0.47635
B         -1.03056       -3.38993       -1.07240
B         -2.56054       -1.66663        0.59060
B         -3.82393       -2.30604       -0.35011
B         -4.00778       -0.86443        0.39421
B         -1.13503       -2.67146        0.68839
B         -1.26549        2.45583        0.25202
B          3.21231        0.07005        0.66917
B         -1.21579       -0.80840        0.87648
B          4.43040        2.56664       -0.48990
B         -5.39282        1.62856       -0.42836
B         -5.43873       -0.03037        0.09888
B         -5.31833       -1.59684       -0.45300
B         -6.50527       -0.79939       -0.95323
B         -6.44994        0.67876       -1.01002
B          1.70870       -0.78246        0.91722
B          0.24913       -3.18591        1.56041
B          0.22926        1.76564        0.76710
B          5.54746        1.64076       -0.86038
B          5.79920        0.10996       -0.81191
B          5.66611       -1.44230       -0.82833
B          0.23098        0.01402        0.98317
