45
isomer_3462.log	Energy: -113367.3036960
B         -2.48811       -1.49958       -0.66020
B         -2.24739       -3.00957        0.28303
B         -1.33315       -4.17953       -0.29307
B          0.09858       -3.19596       -0.94591
B         -1.15928       -0.55953       -0.98885
B          1.72873       -0.69827       -0.98339
B          1.29650       -3.85065        0.31051
B         -3.75571       -0.61530       -0.06470
B          1.61299       -2.37755       -0.67935
B         -3.61187       -2.15348        0.48779
B          0.05034       -4.69483        0.10187
B          2.72649       -3.09766        0.36506
B          3.07161       -1.68120       -0.37344
B          4.51524       -0.84484        0.04551
B          0.36865        1.83869       -1.15408
B          1.76769        2.53609       -0.48027
B          3.16785        1.75217       -0.27195
B          4.40578        0.78147        0.33909
B          4.44224        2.46100        0.67889
B          3.08226        3.28405        0.28331
B          1.70390        4.11805        0.32245
B          0.34323        3.44764       -0.49926
B          0.30540        4.72118        0.44843
B         -2.46226        3.42157       -0.04170
B         -1.09559        4.15795        0.11954
B         -2.50807        1.73235       -0.61186
B         -3.76144        2.64029        0.11740
B         -3.90240        1.05315       -0.27053
B         -1.12915        2.63860       -0.81644
B         -1.36098       -2.51043       -1.28543
B          3.23377        0.05942       -0.63888
B         -1.06660        1.02743       -1.10026
B          4.13864       -2.37407        0.77350
B         -4.93484       -1.41169        0.92769
B         -5.18263        0.17013        0.28050
B         -5.12910        1.82593        0.63422
B         -6.14025        0.98236        1.38412
B         -5.99091       -0.47749        1.57012
B          1.74357        0.91151       -1.04058
B         -0.38582       -3.17981        0.80107
B          0.25408       -1.41752       -1.05008
B          5.26211       -1.50571        1.31624
B          5.64354       -0.02070        1.23173
B          5.55357        1.53621        1.16533
B         -0.87118       -1.74185        0.26284
