45
isomer_3463.log	Energy: -113439.7622169
B         -2.50174        1.74528        0.53473
B         -2.45107        3.38584       -0.07787
B         -1.07864        4.15818       -0.30292
B          0.37277        3.40600        0.28898
B         -1.15285        0.93683        1.06603
B          1.76739        0.88240        0.73476
B          1.74323        4.13297       -0.47931
B         -3.83406        0.96237        0.22092
B          1.79735        2.56083        0.41670
B         -3.86564        2.62434       -0.02903
B          0.34790        4.71948       -0.61966
B          3.12705        3.28255       -0.39115
B          3.18814        1.72334        0.15950
B          4.63362        0.79795        0.03693
B          0.30874       -1.66268        1.31613
B          1.60553       -2.47336        0.58408
B          3.06821       -1.70116        0.35441
B          4.43301       -0.84408       -0.19710
B          4.32232       -2.50469       -0.56924
B          2.89672       -3.23285       -0.14355
B          1.45921       -3.95277       -0.25283
B         -0.02121       -3.24210        0.38040
B          0.14340       -4.46944       -0.70846
B         -2.57965       -3.17686       -0.83043
B         -1.28719       -4.05964       -0.86169
B         -2.44331       -1.74508        0.41103
B         -3.67198       -2.13200       -0.68243
B         -3.72973       -0.70749        0.08248
B         -1.76672       -3.42405        0.56046
B         -1.14141        2.64463        0.57649
B          3.26867        0.01823        0.67224
B         -1.25615       -0.65797        1.03706
B          4.44775        2.42008       -0.71975
B         -5.18759        1.86748       -0.42225
B         -5.22199        0.15598       -0.10398
B         -5.11212       -1.35536       -0.78965
B         -6.29611       -0.52061       -1.19095
B         -6.22116        0.96387       -1.13403
B          1.70869       -0.76794        1.02821
B         -1.12614       -2.31582        1.42918
B          0.36933        1.87713        0.96116
B          5.49202        1.40331       -1.16770
B          5.69971       -0.13018       -1.10573
B          5.48351       -1.67973       -1.06523
B          0.26217        0.08678        0.99307
