45
isomer_3464.log	Energy: -113675.8859302
B         -2.50895        1.76003        0.48790
B         -2.42703        3.33507       -0.04033
B         -1.04679        4.15722       -0.12342
B          0.35154        3.38486        0.51507
B         -1.12976        0.84920        1.04165
B          1.78634        0.82992        0.91105
B          1.74870        4.14428       -0.24568
B         -3.95623        0.91075        0.21536
B          1.80244        2.53249        0.48895
B         -3.80941        2.53756       -0.29319
B          0.34241        4.74590       -0.35176
B          3.09256        3.28027       -0.26570
B          3.17349        1.67991        0.25973
B          4.53248        0.79715       -0.23727
B          0.31251       -1.83069        1.08762
B          1.72392       -2.55146        0.43032
B          3.12846       -1.73363        0.22039
B          4.54662       -0.89474       -0.14500
B          4.32603       -2.49991       -0.77080
B          3.00788       -3.34077       -0.27933
B          1.64114       -4.16974       -0.25881
B          0.26823       -3.40269        0.53842
B          0.21893       -4.74782       -0.35344
B         -2.51396       -3.30325       -0.03654
B         -1.15744       -4.14892       -0.10879
B         -2.56350       -1.73040        0.53115
B         -3.86977       -2.48449       -0.27544
B         -3.98423       -0.84483        0.22506
B         -1.18612       -2.57738        0.78953
B         -1.11896        2.59006        0.76409
B          3.29357       -0.01640        0.60932
B         -1.17021       -0.85053        1.06851
B          4.40754        2.44398       -0.74873
B         -5.06025        1.73898       -0.86539
B         -5.19616        0.04480       -0.52210
B         -5.10462       -1.65131       -0.84480
B         -6.10445       -0.70642       -1.60572
B         -6.08402        0.81417       -1.61318
B          1.71754       -0.84374        0.78801
B         -2.60967        0.01628        0.74613
B          0.36949        1.82500        1.11713
B          5.47347        1.51801       -1.30135
B          5.62017       -0.03381       -1.30443
B          5.37339       -1.57014       -1.33781
B          0.34268       -0.00282        1.09362
