45
isomer_3465.log	Energy: -111819.3435242
B          2.59940       -1.67118        0.36162
B          2.59052       -3.30812       -0.02300
B          1.18333       -4.13872       -0.26118
B         -0.27142       -3.30924        0.29855
B          1.14076       -0.78139        0.67710
B         -1.73348       -0.81365        0.77662
B         -1.66442       -4.09400       -0.38558
B          4.05693       -0.79560        0.28327
B         -1.65567       -2.41633        0.21113
B          3.99652       -2.48636       -0.17794
B         -0.23972       -4.75598       -0.53392
B         -3.09710       -3.24822       -0.39053
B         -3.12217       -1.62839        0.18058
B         -4.58502       -0.81549       -0.30660
B         -0.30110        1.74364        0.84314
B         -1.68734        2.43927        0.22574
B         -3.14343        1.63247        0.19039
B         -4.59557        0.80351       -0.30173
B         -4.43936        2.36294       -0.54308
B         -3.13951        3.25590       -0.37096
B         -1.71798        4.12025       -0.36086
B         -0.31484        3.34962        0.31858
B         -0.30204        4.80162       -0.50516
B          2.54686        3.38775       -0.00285
B          1.12895        4.20136       -0.23608
B          2.57710        1.74878        0.37191
B          3.96344        2.58534       -0.16268
B          4.04592        0.89277        0.28835
B          1.14244        2.56321        0.54402
B          1.17549       -2.50527        0.52878
B         -3.21353       -0.09968        0.58222
B          1.13020        0.83816        0.68197
B         -4.40849       -2.37127       -0.55733
B          5.31302       -1.67148       -0.68602
B          5.30065       -0.04106       -0.44718
B          5.29044        1.79077       -0.67561
B          6.45899        0.84540       -1.28638
B          6.46912       -0.70729       -1.29105
B         -1.74421        0.83234        0.78157
B          0.92730        0.85295        1.85672
B         -0.27860       -1.70640        0.83276
B         -5.92272       -1.66947       -0.76200
B         -6.12927        0.04265       -0.82090
B         -5.94280        1.77389       -0.82225
B          0.61240       -1.83003        1.07584
