45
isomer_3466.log	Energy: -113650.9388080
B         -2.44045        1.78375        0.30708
B         -2.35868        3.36551       -0.18223
B         -0.94396        4.14208       -0.29746
B          0.43651        3.36614        0.38639
B         -1.07164        0.86547        0.81586
B          1.83660        0.82151        0.96376
B          1.86712        4.06959       -0.36444
B         -3.92970        0.98343        0.19380
B          1.87583        2.49811        0.40146
B         -3.77427        2.57469       -0.37989
B          0.46824        4.68152       -0.55012
B          3.22387        3.19977       -0.29534
B          3.25073        1.63369        0.31783
B          4.59568        0.68340       -0.10846
B          0.34748       -0.01177        0.85676
B          1.63722       -2.50363        0.24350
B          3.11154       -1.84420        0.19834
B          4.59067       -1.01451        0.17640
B          4.36483       -2.60349       -0.62810
B          2.92025       -3.37631       -0.42198
B          1.47854       -4.07100       -0.61222
B          0.18911       -3.32661        0.24042
B          0.02051       -4.54104       -0.77839
B         -2.67516       -3.26533        0.10294
B         -1.33381       -4.00472       -0.26950
B         -2.58603       -1.66246        0.52324
B         -4.03588       -2.42555       -0.02658
B         -4.03238       -0.76877        0.36784
B         -1.23594       -2.58012        0.84976
B         -1.04349        2.59124        0.57832
B          3.31359       -0.05857        0.72755
B         -1.16737       -0.81837        0.93388
B          4.58431        2.33623       -0.60889
B         -5.11234        1.78253       -0.79484
B         -5.25351        0.12210       -0.34930
B         -5.31056       -1.59219       -0.47580
B         -6.39350       -0.64819       -1.14548
B         -6.30107        0.85804       -1.28981
B          1.73792       -0.82424        0.60727
B         -2.57193        0.06716        0.68989
B          0.41262        1.80151        1.02220
B          5.71265        1.38569       -0.99028
B          5.81624       -0.17347       -0.92893
B          5.50259       -1.68083       -0.97921
B          0.27702       -1.81779        0.97276
