45
isomer_3467.log	Energy: -113381.2814524
B         -2.56646       -1.73285       -0.67835
B         -2.57136       -3.27717        0.51179
B         -1.23975       -4.08482        0.61264
B          0.15057       -3.32010       -0.19780
B         -1.41410       -0.55336       -1.25411
B          1.58937       -0.80772       -0.91241
B          1.55515       -4.11123        0.31533
B         -3.78349       -0.79884       -0.11929
B          1.61009       -2.54088       -0.62612
B         -3.76080       -2.32931        0.46166
B          0.20342       -4.67080        0.66356
B          2.91012       -3.26844        0.18305
B          3.01334       -1.71696       -0.29258
B          4.41232       -0.85519        0.19128
B          0.37075        1.90905       -1.03680
B          1.77988        2.57656       -0.48498
B          3.13205        1.70089       -0.20589
B          4.54409        0.78753        0.08577
B          4.37095        2.42354        0.74289
B          3.09360        3.29244        0.32431
B          1.74951        4.17710        0.37173
B          0.37570        3.46515       -0.41735
B          0.36907        4.77774        0.49756
B         -2.43453        3.48150        0.01536
B         -1.06827        4.23770        0.18662
B         -2.46645        1.75244       -0.60694
B         -3.70647        2.62084        0.18936
B         -3.80401        0.99885       -0.17506
B         -1.11430        2.68239       -0.61783
B         -1.43567       -3.01657       -0.65504
B          3.19650       -0.01273       -0.59845
B         -1.13958        1.02727       -1.09764
B          4.26558       -2.50336        0.66269
B         -5.05524       -1.46570        0.88254
B         -5.02028        0.15032        0.44884
B         -5.01670        1.81453        0.71740
B         -6.06382        0.95089        1.44944
B         -6.08489       -0.53021        1.52074
B          1.68573        0.85727       -0.74794
B         -1.37595       -1.97758       -1.85340
B          0.15359       -1.82371       -1.15931
B          5.38128       -1.64613        1.19908
B          5.59359       -0.09952        1.23537
B          5.39954        1.42967        1.27243
B          0.21632        0.02952       -1.00412
