45
isomer_3468.log	Energy: -112550.4552107
B          2.69825       -1.65277        0.37815
B          2.65094       -3.29397       -0.04689
B          1.24962       -4.11896       -0.30427
B         -0.21747       -3.32436        0.26643
B          1.19908       -0.63691        0.68218
B         -1.73382       -0.75497        0.81100
B         -1.60525       -4.07954       -0.46667
B          4.10473       -0.77037        0.29911
B         -1.63453       -2.42479        0.17690
B          4.05563       -2.44781       -0.19040
B         -0.17652       -4.71588       -0.60547
B         -3.05466       -3.22199       -0.47642
B         -3.11155       -1.60545        0.14245
B         -4.55820       -0.75708       -0.35090
B         -0.27590        1.81024        0.89280
B         -1.67245        2.50168        0.27350
B         -3.12118        1.69272        0.21008
B         -4.56149        0.86619       -0.31447
B         -4.41076        2.43974       -0.54146
B         -3.10112        3.31995       -0.33104
B         -1.68781        4.18140       -0.29713
B         -0.28889        3.41392        0.38001
B         -0.27191        4.84508       -0.42391
B          2.57236        3.44821        0.05812
B          1.15536        4.25894       -0.16456
B          2.60728        1.80323        0.42072
B          3.98248        2.62544       -0.10856
B          4.07985        0.94246        0.32548
B          1.17896        2.62821        0.59854
B          1.24493       -2.52306        0.53049
B         -3.20811       -0.04060        0.57932
B          1.16545        0.93496        0.71579
B         -4.39552       -2.32954       -0.64571
B          5.34761       -1.61434       -0.69339
B          5.32071        0.01870       -0.42769
B          5.29251        1.83586       -0.62937
B          6.44530        0.90661       -1.25550
B          6.47631       -0.62776       -1.28898
B         -1.74147        0.89572        0.81621
B          1.42176       -1.21950        1.18879
B         -0.21794       -1.70010        0.88811
B         -5.85459       -1.57191       -0.85248
B         -6.05097        0.11157       -0.87284
B         -5.86705        1.79913       -0.83606
B         -1.43002       -1.84831        1.49000
