45
isomer_3469.log	Energy: -113323.0821480
B         -2.64232       -1.50825       -0.50645
B         -2.68699       -3.14374       -0.14917
B         -1.33540       -4.03363       -0.49019
B          0.33091       -3.58622       -0.84435
B         -1.30704       -0.71217       -1.06270
B          1.62334       -0.88320       -0.87117
B          1.22322       -4.06274        0.54479
B         -3.87205       -0.56375        0.01628
B          1.46196       -2.47244       -0.21810
B         -3.83542       -2.23377        0.34199
B         -0.14940       -4.64983        0.31591
B          2.57555       -3.19909        0.78130
B          2.85398       -1.72304        0.11929
B          4.24994       -0.86609        0.60489
B          0.35736        1.76026       -1.18135
B          1.81677        2.47649       -0.69990
B          3.16391        1.62941       -0.27696
B          4.52899        0.72515        0.15676
B          4.39536        2.42555        0.61786
B          3.12317        3.25858        0.04992
B          1.80888        4.14901       -0.05574
B          0.39199        3.38243       -0.76842
B          0.43207        4.80512       -0.02156
B         -2.39395        3.45489       -0.22236
B         -0.97748        4.24792       -0.21188
B         -2.52259        1.80014       -0.61035
B         -3.68998        2.69541        0.27033
B         -3.93438        1.07392       -0.11571
B         -1.12391        2.59042       -0.83641
B         -1.55084       -2.45745       -1.29629
B          3.19410       -0.09034       -0.48093
B         -1.20023        0.86389       -1.09604
B          3.93533       -2.39369        1.30101
B         -4.86537       -1.30865        1.26692
B         -4.46423        0.33450        1.26222
B         -4.87582        1.99293        1.04920
B         -5.77196        1.11557        1.91410
B         -5.69548       -0.39477        2.10490
B          1.71424        0.76734       -0.85776
B         -0.54247       -3.26146       -2.07754
B          0.20087       -1.84463       -1.33609
B          5.08780       -1.53912        1.78701
B          5.43077       -0.04174        1.56021
B          5.33473        1.48181        1.33030
B          0.20205       -0.06093       -1.10777
