45
isomer_3471.log	Energy: -113206.8335427
B         -2.60243        1.72311        0.54338
B         -2.53088        3.31586        0.05504
B         -1.10080        4.07650       -0.08892
B          0.31267        3.32907        0.50292
B         -1.13083        0.83566        0.91961
B          1.88583        0.82233        0.98418
B          1.69036        4.06578       -0.29715
B         -4.10020        0.92288        0.33815
B          1.72477        2.42632        0.41625
B         -3.93070        2.56525       -0.15093
B          0.27938        4.63860       -0.42391
B          3.05070        3.27390       -0.28479
B          3.23685        1.73912        0.27160
B          4.66074        0.94346       -0.18221
B          0.81564       -1.56540        1.37031
B          1.97413       -2.48926        0.45524
B          3.35709       -1.65146        0.26197
B          4.65580       -0.72985       -0.31180
B          4.60588       -2.37007       -0.77544
B          3.20130       -3.16125       -0.41408
B          1.79296       -3.99397       -0.40246
B          0.46434       -3.38754        0.42629
B          0.32079       -4.61080       -0.54349
B         -2.75210       -3.35455       -0.06037
B         -1.07171       -3.99135       -0.13873
B         -2.73139       -1.66707        0.35991
B         -4.09856       -2.44874       -0.36075
B         -4.16941       -0.85170        0.23203
B         -1.65376       -2.78871        0.81160
B         -1.18020        2.52632        0.70450
B          3.45528        0.07337        0.65580
B         -1.14400       -0.72628        0.93158
B          4.46280        2.56621       -0.66555
B         -5.19899        1.81085       -0.71395
B         -5.31356        0.12098       -0.52888
B         -5.30675       -1.57879       -0.90805
B         -6.31961       -0.56414       -1.56922
B         -6.28519        0.94043       -1.48934
B          2.11161       -0.80851        1.15840
B         -2.69658       -0.00225        0.80796
B          0.38029        1.64413        1.02988
B          5.62982        1.68822       -1.18923
B          5.87780        0.15090       -1.19481
B          5.73285       -1.43737       -1.22843
B         -0.36200       -2.02022        0.68590
