45
isomer_3472.log	Energy: -113422.4095469
B          2.63709       -1.60837        0.65272
B          2.63218       -3.24957        0.02318
B          1.29771       -4.10316       -0.11214
B         -0.22400       -3.45442        0.56290
B          1.17535       -0.81690        0.91469
B         -1.50919       -0.80289        0.12755
B         -1.52325       -4.16795       -0.42453
B          3.96041       -0.75657        0.29758
B         -1.58252       -2.57965        0.17803
B          3.92085       -2.30578       -0.17008
B         -0.09165       -4.64456       -0.52208
B         -2.93733       -3.34103       -0.45220
B         -2.99294       -1.73200       -0.06838
B         -4.49949       -0.93513        0.03691
B         -0.29275        1.68862        0.70303
B         -1.76490        2.46735        0.52572
B         -3.14046        1.64392        0.45568
B         -4.48285        0.73691       -0.08693
B         -4.52076        2.43514       -0.36734
B         -3.12230        3.23162       -0.03110
B         -1.76757        4.15639       -0.12364
B         -0.34319        3.30279        0.16607
B         -0.38359        4.78520       -0.36777
B          2.44980        3.32592       -0.27425
B          1.06811        4.14962       -0.32255
B          2.53544        1.64885        0.21547
B          3.88259        2.53682       -0.30832
B          3.90793        0.92389       -0.00553
B          1.17302        2.55045        0.35861
B          1.25279       -2.56970        0.56961
B         -3.13180       -0.08673        0.58288
B          1.19250        0.77071        0.65236
B         -4.30923       -2.52043       -0.76318
B          5.36226       -1.52740       -0.39541
B          5.34419        0.13415       -0.07377
B          5.23819        1.75685       -0.70274
B          6.35522        0.79435       -1.17136
B          6.51401       -0.67954       -0.90953
B         -1.67345        0.72206        1.09890
B         -0.30755       -0.15630        1.57161
B         -0.28096       -1.78374        0.93393
B         -5.44727       -1.56166       -1.07953
B         -5.74361       -0.03769       -0.92856
B         -5.64243        1.53083       -0.82459
B         -0.18459        0.12873       -0.14191
