45
isomer_3476.log	Energy: -113458.2557348
B          2.64438       -1.53776        0.56756
B          2.62396       -3.24352       -0.00764
B          1.32200       -4.06027        0.05475
B         -0.19676       -3.32289        0.77958
B          1.22245       -0.75422        0.92255
B         -1.67673       -0.91976        0.97234
B         -1.46675       -4.09806       -0.23469
B          3.98478       -0.77970        0.27880
B         -1.34399       -2.34968       -0.15349
B          3.90343       -2.35388       -0.18696
B         -0.07694       -4.64456       -0.18106
B         -2.80181       -3.27315       -0.45654
B         -2.97188       -1.80204        0.18499
B         -4.32406       -0.87352       -0.36102
B         -0.32541        1.78457        0.96925
B         -1.80330        2.54569        0.60311
B         -3.15241        1.67539        0.28855
B         -4.54985        0.73618        0.00576
B         -4.45192        2.41738       -0.53471
B         -3.11921        3.28230       -0.16033
B         -1.76665        4.13418       -0.21270
B         -0.33314        3.36791        0.39650
B         -0.35509        4.72113       -0.42091
B          2.46836        3.41476       -0.09173
B          1.08966        4.15976       -0.19824
B          2.55489        1.73205        0.65955
B          3.74053        2.56404       -0.27029
B          3.93522        0.98916        0.21645
B          1.14529        2.50969        0.41858
B          1.19298       -2.38452        0.38438
B         -3.18291       -0.08247        0.59087
B          1.22451        0.93911        1.04580
B         -4.16548       -2.51418       -0.85755
B          5.22868       -1.53240       -0.69704
B          5.21875        0.13089       -0.32926
B          5.05985        1.74138       -0.78750
B          6.11950        0.83953       -1.49599
B          6.22465       -0.64432       -1.40928
B         -1.74133        0.85440        0.85869
B         -0.24988        0.00517        1.08434
B         -0.29085       -1.81308        1.48171
B         -5.36096       -1.64058       -1.27465
B         -5.61110       -0.10969       -1.18304
B         -5.47531        1.45017       -1.08104
B         -0.11015       -1.26055       -0.17850
