45
isomer_3481.log	Energy: -112166.0188902
B         -2.74352       -1.54019       -0.44965
B         -2.78899       -3.22094       -0.04649
B         -1.47911       -4.15863        0.28657
B          0.32222       -3.23468       -0.36352
B         -1.31866       -0.53960       -0.73606
B          1.80207       -0.73032       -0.84875
B          1.78623       -3.99659        0.34831
B         -4.13669       -0.65684       -0.37755
B          1.75914       -2.33730       -0.27060
B         -4.11951       -2.33734        0.08242
B          0.42078       -4.78290        0.54761
B          3.17897       -3.15073        0.34368
B          3.19242       -1.54202       -0.22716
B          4.64313       -0.71259        0.26244
B          0.27052        1.84555       -0.89246
B          1.69365        2.52516       -0.27737
B          3.16035        1.73135       -0.24236
B          4.62013        0.91245        0.25120
B          4.45634        2.48180        0.50983
B          3.12343        3.33812        0.32283
B          1.69860        4.18783        0.31630
B          0.29708        3.44273       -0.35561
B          0.29304        4.84018        0.46153
B         -2.56303        3.48991       -0.03560
B         -1.13359        4.27313        0.19850
B         -2.62381        1.86016       -0.42890
B         -3.97664        2.69109        0.10268
B         -4.08927        1.03581       -0.36860
B         -1.18712        2.66375       -0.58417
B         -1.32333       -2.43225       -0.60511
B          3.26375        0.00744       -0.63419
B         -1.20988        0.97357       -0.73586
B          4.51381       -2.27907        0.52546
B         -5.39689       -1.50740        0.58920
B         -5.34516        0.12176        0.35129
B         -5.29624        1.91436        0.59047
B         -6.45306        1.00238        1.17884
B         -6.51371       -0.52562        1.19089
B          1.77896        0.92509       -0.84178
B         -0.57046       -4.15266        0.05934
B          0.39721       -1.63346       -0.93419
B          5.94726       -1.51194        0.71766
B          6.11182        0.16645        0.76904
B          5.90831        1.82383        0.76766
B         -0.37055       -1.27084       -0.51778
