45
isomer_3482.log	Energy: -113628.0474571
B         -2.09972        1.59062       -0.19275
B         -2.05058        3.23155       -0.66544
B         -0.68724        4.03976       -0.55582
B          0.60879        3.30960        0.37432
B         -1.04159        0.91297        0.92495
B          1.85867        0.70151        1.23886
B          2.08633        3.96355       -0.27786
B         -3.46666        0.74205       -0.73568
B          1.97011        2.38703        0.65322
B         -3.42644        2.42721       -0.89838
B          0.75282        4.58517       -0.61159
B          3.35728        3.00087       -0.08603
B          3.32023        1.48039        0.52427
B          4.56869        0.40420       -0.01880
B          0.11331       -1.67970        0.96905
B          1.39450       -2.58659        0.45968
B          2.92126       -1.93681        0.23799
B          4.49039       -1.26639        0.19152
B          4.07525       -2.83326       -0.62136
B          2.61976       -3.44865       -0.39459
B          1.14865       -3.89252       -0.78177
B         -0.14030       -2.87952       -0.15420
B         -0.34246       -4.13513       -1.13321
B         -2.92495       -2.68618       -0.05728
B         -1.61896       -3.40926       -0.77330
B         -2.69320       -1.46129        1.17619
B         -4.23665       -2.27866        0.61134
B         -3.69629       -0.88340       -0.08655
B         -1.44102       -1.75822       -0.05535
B         -0.93812        2.57780        0.41115
B          3.25131       -0.28721        0.79837
B         -2.06950       -0.19163       -0.09845
B          4.65114        2.06756       -0.43866
B         -4.83475        1.73116       -0.99855
B         -5.01508        0.08751       -0.48976
B         -5.46652       -1.33345        0.35938
B         -6.51638       -0.24833       -0.03068
B         -6.26231        1.06774       -0.70612
B          1.63836       -0.90036        0.87260
B         -1.27214       -0.70377        1.48033
B          0.48508        1.81373        1.08530
B          5.70776        1.07808       -0.89806
B          5.67761       -0.47341       -0.96295
B          5.22654       -1.95862       -1.05506
B          0.31703        0.03231        1.40972
