45
isomer_3483.log	Energy: -113235.4659464
B         -2.53684        1.78568        0.57683
B         -2.42586        3.39270       -0.09148
B         -1.12110        4.17876       -0.28878
B          0.39504        3.45302        0.32368
B         -1.04749        1.12172        1.04692
B          1.57487        0.79396        0.80638
B          1.72450        4.07811       -0.51971
B         -3.99236        1.03171        0.30065
B          1.73605        2.45228        0.25283
B         -3.83490        2.56544       -0.21829
B          0.32168        4.69304       -0.67582
B          3.09906        3.22581       -0.34601
B          3.15070        1.68264        0.24127
B          4.60093        0.79416        0.09241
B          0.09292       -0.52378        0.84067
B          1.68035       -2.48032        0.35853
B          3.07599       -1.67953        0.22396
B          4.52895       -0.87825        0.03545
B          4.33421       -2.39561       -0.74655
B          2.88067       -3.15845       -0.51299
B          1.49008       -3.92519       -0.53526
B          0.15096       -3.22647        0.45563
B          0.03190       -4.54253       -0.51271
B         -2.43234       -3.10811       -0.03883
B         -1.36598       -4.37303       -0.00555
B         -2.65266       -1.35737        0.63613
B         -3.84208       -2.27037       -0.13096
B         -4.06868       -0.71529        0.44217
B         -1.07397       -1.91821        0.53209
B         -1.10723        2.71258        0.67724
B          3.24185       -0.00902        0.74832
B         -1.45065       -0.24897        0.65356
B          4.48547        2.39365       -0.53957
B         -5.11039        1.79167       -0.74512
B         -5.34987        0.15459       -0.16579
B         -5.24634       -1.57298       -0.49809
B         -6.34103       -0.67487       -1.17127
B         -6.19152        0.79214       -1.37814
B          1.72550       -0.81445        1.03857
B         -0.99428       -3.00872       -0.73940
B          0.39525        1.85700        0.99448
B          5.66645        1.48809       -0.89384
B          5.80781       -0.03660       -0.91179
B          5.52317       -1.56057       -1.06804
B          0.47126       -1.96009        1.45622
