45
isomer_3485.log	Energy: -112478.7372250
B         -2.62029        1.77671        0.44400
B         -2.60761        3.41935        0.08459
B         -1.19872        4.24882       -0.14740
B          0.25578        3.40596        0.39262
B         -1.16323        0.87730        0.73886
B          1.71153        0.89842        0.82531
B          1.64825        4.19651       -0.28590
B         -4.08114        0.90732        0.35905
B          1.63656        2.50988        0.28494
B         -4.01711        2.60477       -0.07635
B          0.22514        4.86544       -0.41731
B          3.07800        3.34612       -0.31063
B          3.10020        1.71761        0.23535
B          4.55798        0.90743       -0.27118
B          0.27076       -1.65478        0.85921
B          1.65172       -2.34545        0.22464
B          3.11038       -1.54307        0.19486
B          4.56303       -0.71148       -0.29129
B          4.40037       -2.26648       -0.55588
B          3.09830       -3.15763       -0.39140
B          1.67389       -4.01728       -0.38791
B          0.27657       -3.25253        0.30993
B          0.25497       -4.69162       -0.53600
B         -2.58671       -3.27615        0.00144
B         -1.17269       -4.09079       -0.25097
B         -2.60961       -1.64305        0.40153
B         -4.00128       -2.46664       -0.13933
B         -4.07587       -0.78095        0.33809
B         -1.17695       -2.46483        0.55432
B         -1.19278        2.60337        0.61726
B          3.18822        0.18259        0.61297
B         -1.15818       -0.74216        0.71875
B          4.38559        2.46747       -0.49709
B         -5.33874        1.80222       -0.59071
B         -5.33083        0.16829       -0.37706
B         -5.32793       -1.65983       -0.63370
B         -6.49609       -0.70126       -1.22433
B         -6.50093        0.85134       -1.20505
B          1.71667       -0.74747        0.80487
B         -0.17922       -1.14628       -0.75333
B          0.25999        1.79506        0.90205
B          5.89645        1.76385       -0.71968
B          6.09687        0.05217       -0.80590
B          5.90450       -1.67822       -0.83303
B         -0.12578       -2.33005        1.79680
