45
isomer_3486.log	Energy: -113531.9335442
B         -2.88254       -1.28129       -0.89567
B         -3.69419       -2.78344       -0.67752
B         -2.75554       -3.38806        0.34762
B         -0.55453       -2.80694       -0.67933
B         -2.11916       -0.06843        0.05637
B          1.98507       -1.32902       -1.44262
B          0.23128       -3.12974        0.80790
B         -3.96564       -0.21271       -0.21448
B          0.94947       -2.10403       -0.42471
B         -4.71972       -1.58173       -0.65212
B         -1.30897       -3.47286        0.80707
B          1.68985       -2.70046        1.11575
B          2.63417       -2.00757        0.00024
B          4.24010       -1.57907        0.45997
B          0.95736        1.21526       -0.67235
B          2.51893        1.89658       -1.00605
B          3.84737        0.92577       -0.89759
B          4.99439       -0.21366       -0.29923
B          5.16448        1.52838       -0.01585
B          4.02317        2.53971       -0.54197
B          2.83010        3.58633       -0.34991
B          1.27606        2.86464       -0.36419
B          1.59523        4.32111        0.16156
B         -1.35230        3.26156        0.69571
B          0.09687        3.84286        0.43012
B         -1.75114        1.57641        0.25429
B         -2.86535        2.85267        0.74238
B         -3.38769        1.37332        0.24567
B         -0.18899        2.17975        0.12643
B         -1.78024       -1.89433        0.44076
B          3.56266       -0.83896       -0.95742
B         -0.57796        0.53816       -0.34425
B          3.20466       -2.44959        1.54787
B         -5.71270       -0.45635       -0.11748
B         -4.95632        0.96052        0.45260
B         -4.46768        2.53518        0.88722
B         -5.99079        2.07581        0.94543
B         -6.54938        0.75318        0.48040
B          2.23997        0.26868       -1.21940
B         -2.03972       -2.75495       -1.19031
B         -1.00806       -1.10380       -0.96403
B          4.65374       -2.06365        1.90658
B          5.49634       -0.89071        1.38139
B          5.88773        0.48973        0.81510
B          0.54961       -0.47425       -1.18191
