45
isomer_3487.log	Energy: -113470.0676279
B         -2.59225        1.63730        0.73697
B         -2.58912        3.32626       -0.02656
B         -1.23787        4.11251       -0.26661
B          0.23524        3.36635        0.24578
B         -1.20305        0.85480        0.97892
B          1.72039        0.91411        0.84049
B          1.60473        4.17438       -0.45488
B         -3.97766        0.87656        0.42212
B          1.68437        2.57066        0.41472
B         -3.87758        2.45424       -0.03290
B          0.18709        4.70812       -0.60642
B          2.99606        3.35211       -0.37952
B          3.12296        1.82902        0.25334
B          4.54657        0.90977        0.00090
B          0.24968       -1.61551        0.55730
B          1.72047       -2.46401        0.45510
B          3.12196       -1.67093        0.45053
B          4.40272       -0.73457       -0.16817
B          4.46353       -2.40594       -0.43510
B          3.07321       -3.25301       -0.10163
B          1.74754       -4.11341       -0.16725
B          0.20735       -3.31572        0.52272
B          0.40669       -4.52888       -0.60471
B         -2.38617       -3.11965       -0.50914
B         -1.01497       -3.85926       -0.57841
B         -2.52305       -1.75568        0.59799
B         -3.77607       -2.34715       -0.44675
B         -3.93476       -0.91379        0.28343
B         -1.27552       -2.76251        1.03021
B         -1.22792        2.49020        0.38039
B          3.21746        0.09756        0.63252
B         -1.22337       -0.75334        0.62988
B          4.36810        2.54273       -0.66628
B         -5.25576        1.65945       -0.41395
B         -5.25453        0.00373       -0.08719
B         -5.16865       -1.58059       -0.69056
B         -6.27971       -0.65935       -1.22789
B         -6.31961        0.80628       -1.09433
B          1.70886       -0.74994        1.03595
B          0.25937        0.03106        1.23362
B          0.27293        1.80129        0.81568
B          5.48714        1.58483       -1.10018
B          5.73134        0.06167       -0.99268
B          5.58412       -1.51952       -0.91177
B         -1.00227       -2.04222       -0.55572
