45
isomer_3489.log	Energy: -111701.3038513
B         -2.55037       -1.53732       -0.56122
B         -2.59673       -3.17868       -0.19872
B         -1.21937       -4.05290        0.05702
B          0.27008       -3.25893       -0.46143
B         -1.06040       -0.68636       -0.83461
B          1.81316       -0.80097       -0.87553
B          1.62527       -4.09270        0.24045
B         -3.98337       -0.62078       -0.50095
B          1.67737       -2.40790       -0.33353
B         -3.98138       -2.31841       -0.06155
B          0.17928       -4.71479        0.35053
B          3.08132       -3.28911        0.28627
B          3.16502       -1.66344       -0.26221
B          4.64019       -0.89983        0.26588
B          0.45681        1.79757       -0.93678
B          1.84932        2.44451       -0.28169
B          3.28049        1.59528       -0.22739
B          4.69752        0.71810        0.28316
B          4.58131        2.27816        0.54236
B          3.31164        3.21073        0.35570
B          1.91614        4.11614        0.32814
B          0.50587        3.39554       -0.39034
B          0.51772        4.83652        0.45256
B         -2.35962        3.51279       -0.12723
B         -0.92404        4.28169        0.14606
B         -2.42927        1.88038       -0.52471
B         -3.80179        2.74994       -0.00741
B         -3.92358        1.06648       -0.48292
B         -0.96844        2.65487       -0.65629
B         -1.14792       -2.41027       -0.71040
B          3.30880       -0.13296       -0.64114
B         -1.00305        0.93213       -0.81732
B          4.41367       -2.45294        0.49182
B         -5.28418       -1.47221        0.43040
B         -5.21982        0.16011        0.21397
B         -5.16158        1.98776        0.46736
B         -6.36942        1.06897        1.04115
B         -6.42440       -0.48269        1.02457
B          1.87145        0.84393       -0.85796
B         -3.38628       -1.02982        2.23222
B          0.33464       -1.65020       -0.97362
B          5.94290       -1.79821        0.73702
B          6.19744       -0.09374        0.82334
B          6.06098        1.64203        0.84433
B         -1.90340       -2.12844        0.11058
