45
isomer_0349.log	Energy: -112581.9903514
B         -2.60966        1.70858        0.41562
B         -2.59627        3.34971        0.04940
B         -1.18694        4.17821       -0.18331
B          0.26651        3.33760        0.36303
B         -1.15318        0.81040        0.71705
B          1.72141        0.83189        0.80899
B          1.66030        4.12532       -0.31607
B         -4.07035        0.83884        0.33147
B          1.64749        2.44108        0.26177
B         -4.00546        2.53446       -0.11088
B          0.23745        4.79370       -0.45303
B          3.09009        3.27484       -0.33449
B          3.11122        1.64862        0.21831
B          4.56997        0.83634       -0.28202
B          0.28056       -1.72115        0.85072
B          1.66274       -2.41445        0.22171
B          3.12146       -1.61220        0.19141
B          4.57506       -0.78264       -0.29537
B          4.41290       -2.33873       -0.55381
B          3.11051       -3.22919       -0.38814
B          1.68609       -4.08882       -0.38383
B          0.28742       -3.32117        0.30811
B          0.26746       -4.76377       -0.53186
B         -2.57525       -3.34608       -0.00583
B         -1.16075       -4.16176       -0.25210
B         -2.59892       -1.71133        0.38742
B         -3.98954       -2.53717       -0.15271
B         -4.06505       -0.84951        0.31754
B         -1.16657       -2.53246        0.54640
B         -1.18248        2.53595        0.58821
B          3.19850        0.11519        0.60249
B         -1.14810       -0.80913        0.70370
B          4.39804        2.39543       -0.51476
B         -5.32610        1.72977       -0.62445
B         -5.31861        0.09675       -0.40398
B         -5.31523       -1.73243       -0.65301
B         -6.48223       -0.77633       -1.24988
B         -6.48711        0.77634       -1.23707
B          1.72658       -0.81407        0.79541
B         -0.57580       -1.17897        1.89454
B          0.26972        1.72883        0.87918
B          5.90932        1.69089       -0.73148
B          6.10990       -0.02114       -0.81019
B          5.91757       -1.75162       -0.83049
B         -0.22469        0.71540       -0.15372
