45
isomer_3492.log	Energy: -113455.7931096
B          2.23697       -1.18362        0.47458
B          2.22054       -2.68748       -0.76736
B          0.89207       -3.42730       -1.15807
B         -0.50002       -3.35050       -0.03884
B          0.86627       -1.16289        1.38064
B         -1.83534       -0.88705        1.25520
B         -1.93624       -3.60414       -1.01941
B          3.84690       -0.62726        0.36785
B         -1.92950       -2.46674        0.28423
B          3.56526       -2.05594       -0.40007
B         -0.53764       -3.89827       -1.52886
B         -3.31025       -2.94356       -0.50305
B         -3.24024       -1.50913        0.31011
B         -4.53602       -0.48003       -0.06860
B         -0.06316        1.48526        0.62124
B         -1.46224        2.42238        0.16795
B         -2.97866        1.88684        0.44694
B         -4.53602        1.17442        0.26202
B         -4.22102        2.76049       -0.40937
B         -2.73776        3.36868       -0.30451
B         -1.23317        3.95046       -0.59211
B          0.12603        3.04284        0.04822
B          0.20763        4.23618       -0.98167
B          2.84874        2.63333       -0.63950
B          1.56550        3.47030       -0.77726
B          2.87020        0.94020        0.34951
B          4.17856        2.03663       -0.30345
B          4.43450        0.93036        0.81799
B          1.47574        1.88021       -0.07783
B          0.97229       -2.40393        0.17114
B         -3.21278        0.16512        0.76903
B          1.32539        0.36228        0.60255
B         -4.69629       -2.08068       -0.57069
B          5.06287       -1.63765       -0.45518
B          5.53104       -0.18947        0.30115
B          5.72324        1.43263       -0.13852
B          6.75706        0.45622       -0.65846
B          6.39356       -0.96106       -0.85594
B         -1.64117        0.81951        0.75617
B         -0.25057        0.15500        1.56496
B         -0.49107       -2.24211        1.19302
B         -5.82515       -1.10057       -0.77883
B         -5.84429        0.46957       -0.71804
B         -5.47128        1.96831       -0.76113
B         -0.61047       -1.14784        2.36225
