45
isomer_3494.log	Energy: -113662.2214277
B          2.60982       -1.73475        0.59414
B          2.56830       -3.31249       -0.02198
B          1.20973       -4.17854       -0.06173
B         -0.24631       -3.43149        0.58526
B          1.15278       -0.86866        0.90657
B         -1.70719       -0.84295        0.74036
B         -1.61360       -4.19773       -0.23663
B          3.99216       -0.80984        0.22986
B         -1.68515       -2.56378        0.32241
B          3.92738       -2.46979       -0.20618
B         -0.17264       -4.76629       -0.30996
B         -2.98990       -3.37214       -0.27780
B         -3.13848       -1.76210        0.24960
B         -4.54901       -0.92951       -0.12098
B         -0.38605        1.82161        1.10703
B         -1.82927        2.53531        0.52476
B         -3.17988        1.67954        0.22924
B         -4.54827        0.76433       -0.21414
B         -4.42860        2.43366       -0.73772
B         -3.11797        3.27984       -0.27519
B         -1.77583        4.15357       -0.24289
B         -0.39182        3.38194        0.50295
B         -0.37640        4.75569       -0.34269
B          2.39356        3.34793       -0.05795
B          1.01776        4.17369       -0.10971
B          2.48773        1.78959        0.52273
B          3.79105        2.55967       -0.29432
B          3.92357        0.93825        0.17397
B          1.09399        2.60769        0.75281
B          1.20496       -2.57218        0.68232
B         -3.27236       -0.03365        0.59743
B          1.12010        0.85237        1.05308
B         -4.31442       -2.53123       -0.75935
B          5.17013       -1.63031       -0.75129
B          5.21936        0.07978       -0.50026
B          5.04606        1.77076       -0.85991
B          6.06058        0.84074       -1.63096
B          6.11730       -0.67992       -1.58449
B         -1.80107        0.83422        0.89331
B          2.57587        0.03097        0.69316
B         -0.29860       -1.78573        0.87949
B         -5.37298       -1.60213       -1.31287
B         -5.63609       -0.06884       -1.26940
B         -5.49407        1.48482       -1.26590
B         -0.35623        0.02808        1.20378
