45
isomer_3495.log	Energy: -112144.4212441
B         -2.55270       -1.63627       -0.51715
B         -2.56322       -3.27715       -0.14974
B         -1.16658       -4.12295        0.09684
B          0.30233       -3.30094       -0.43629
B         -1.08236       -0.75653       -0.80539
B          1.79247       -0.81388       -0.87012
B          1.67972       -4.10543        0.25648
B         -4.00317       -0.74834       -0.44738
B          1.69335       -2.42161       -0.32256
B         -3.96360       -2.44429       -0.00332
B          0.24742       -4.75593        0.38042
B          3.11975       -3.27280        0.28785
B          3.16636       -1.64739       -0.26579
B          4.63033       -0.85296        0.24777
B          0.38400        1.75687       -0.92716
B          1.76871        2.43340       -0.28558
B          3.21698        1.61306       -0.24095
B          4.65546        0.76584        0.26010
B          4.51027        2.32403        0.51596
B          3.22070        3.23051        0.33740
B          1.80721        4.10781        0.31906
B          0.40568        3.35710       -0.38556
B          0.39576        4.80049        0.45322
B         -2.45930        3.41790       -0.09873
B         -1.03713        4.21610        0.16037
B         -2.49962        1.78327       -0.49110
B         -3.88488        2.62677        0.03531
B         -3.97697        0.93982       -0.43452
B         -1.05571        2.58637       -0.63708
B         -1.13437       -2.48148       -0.67569
B          3.27636       -0.11547       -0.65014
B         -1.05723        0.86282       -0.79305
B          4.43679       -2.40960        0.47990
B         -5.27890       -1.62283        0.49720
B         -5.24898        0.00981        0.27574
B         -5.22516        1.83899        0.52358
B         -6.40957        0.89796        1.11002
B         -6.43367       -0.65453        1.09820
B          1.81802        0.83190       -0.85759
B         -2.14220       -1.03898        2.13621
B          0.33046       -1.69274       -0.95345
B          5.95462       -1.72377        0.71044
B          6.17576       -0.01431        0.78991
B          6.00482        1.71845        0.80725
B         -1.81801       -0.20908       -0.53089
