45
isomer_3496.log	Energy: -113675.8815313
B          2.56321        1.73052       -0.53137
B          2.51325        3.30334        0.03711
B          1.15650        4.14845        0.10932
B         -0.26907        3.40297       -0.53867
B          1.17071        0.85100       -1.07052
B         -1.71705        0.84337       -0.78829
B         -1.64176        4.16955        0.25896
B          3.98386        0.84547       -0.22460
B         -1.72464        2.55144       -0.43132
B          3.86914        2.48509        0.27590
B         -0.21978        4.74754        0.35378
B         -3.00836        3.34046        0.27897
B         -3.12877        1.73315       -0.22066
B         -4.54655        0.89397        0.14544
B         -0.36987       -1.82523       -1.11631
B         -1.80185       -2.53250       -0.48830
B         -3.17315       -1.68037       -0.25963
B         -4.53180       -0.79772        0.23736
B         -4.40687       -2.44423        0.74940
B         -3.09189       -3.28076        0.26632
B         -1.74808       -4.14472        0.24591
B         -0.35096       -3.38475       -0.51393
B         -0.34160       -4.74597        0.35238
B          2.42754       -3.33498        0.03941
B          1.04753       -4.15706        0.12339
B          2.50910       -1.76010       -0.48978
B          3.80931       -2.53710        0.29297
B          3.95597       -0.91033       -0.21485
B          1.11897       -2.58990       -0.76562
B          1.18561        2.57740       -0.78936
B         -3.29301        0.01618       -0.60893
B          1.13090       -0.84888       -1.04387
B         -4.32640        2.49960        0.77040
B          5.10356        1.65195        0.84612
B          5.19533       -0.04419        0.52332
B          5.06009       -1.73856        0.86513
B          6.08353       -0.81376        1.61369
B          6.10364        0.70707        1.60677
B         -1.78558       -0.83004       -0.91085
B          2.61027       -0.01590       -0.74669
B         -0.31364        1.83099       -1.08776
B         -5.37342        1.56949        1.33798
B         -5.62012        0.03361        1.30417
B         -5.47311       -1.51823        1.30159
B         -0.34069        0.00268       -1.09448
