45
isomer_3497.log	Energy: -113458.2250044
B          2.64153       -1.54110        0.56508
B          2.62047       -3.24556       -0.01041
B          1.31877       -4.06257        0.05572
B         -0.19921       -3.32384        0.78195
B          1.22120       -0.75631        0.92435
B         -1.67664       -0.91789        0.96881
B         -1.46995       -4.09804       -0.23172
B          3.98133       -0.78204        0.27304
B         -1.34513       -2.34980       -0.15248
B          3.90008       -2.35639       -0.19126
B         -0.08031       -4.64563       -0.17862
B         -2.80408       -3.27250       -0.45300
B         -2.97308       -1.80022        0.18583
B         -4.32489       -0.87152       -0.35799
B         -0.32533        1.78684        0.97666
B         -1.80016        2.54606        0.59765
B         -3.15166        1.67822        0.28736
B         -4.54902        0.73906        0.00190
B         -4.44930        2.41951       -0.54030
B         -3.11609        3.28291       -0.16545
B         -1.76187        4.13352       -0.21804
B         -0.33028        3.37017        0.40076
B         -0.35021        4.71822       -0.42593
B          2.47223        3.41368       -0.08888
B          1.09341        4.15660       -0.19918
B          2.55615        1.72731        0.65959
B          3.74290        2.56331       -0.26857
B          3.93531        0.98700        0.21476
B          1.15097        2.51655        0.44375
B          1.18921       -2.38578        0.37931
B         -3.18282       -0.07884        0.59139
B          1.22419        0.93750        1.04639
B         -4.16733       -2.51197       -0.85497
B          5.22553       -1.53496       -0.70134
B          5.21799        0.12783       -0.33031
B          5.06247        1.73973       -0.78532
B          6.12188        0.83815       -1.49397
B          6.22247       -0.64635       -1.41204
B         -1.74047        0.85662        0.86172
B         -0.24978        0.00561        1.08285
B         -0.29211       -1.81255        1.48115
B         -5.36132       -1.63766       -1.27335
B         -5.61076       -0.10642       -1.18342
B         -5.47534        1.45338       -1.08367
B         -0.11094       -1.25985       -0.17978
