45
isomer_3499.log	Energy: -112811.5389445
B          2.61214       -1.68531        0.39802
B          2.58868       -3.34035       -0.01115
B          1.16425       -4.17449       -0.25530
B         -0.29270       -3.36306        0.30741
B          1.18413       -0.75467        0.72240
B         -1.76129       -0.82627        0.80951
B         -1.68552       -4.10670       -0.39075
B          4.03498       -0.80996        0.31489
B         -1.70985       -2.45017        0.21933
B          3.96241       -2.48780       -0.15371
B         -0.25341       -4.74987       -0.52922
B         -3.11216       -3.25605       -0.40554
B         -3.14260       -1.64096        0.18068
B         -4.58434       -0.79048       -0.30228
B         -0.27150        1.76871        0.90366
B         -1.67139        2.46139        0.29255
B         -3.12358        1.66240        0.23663
B         -4.57135        0.84458       -0.27422
B         -4.41779        2.41895       -0.50943
B         -3.08391        3.28547       -0.30101
B         -1.66873        4.13883       -0.27468
B         -0.26920        3.37533        0.39249
B         -0.25990        4.78646       -0.40547
B          2.58633        3.39934        0.06162
B          1.17084        4.20993       -0.14997
B          2.62087        1.75598        0.43500
B          3.97227        2.56684       -0.10536
B          4.03981        0.90073        0.33476
B          1.19922        2.59187        0.60919
B          1.19731       -2.57308        0.55574
B         -3.22113       -0.08063        0.60417
B          1.20405        0.88932        0.75168
B         -4.45157       -2.36709       -0.59066
B          5.24868       -1.66770       -0.67133
B          5.25026       -0.03046       -0.41708
B          5.25490        1.76043       -0.62693
B          6.37186        0.82640       -1.25132
B          6.38341       -0.69971       -1.27729
B         -1.74704        0.84117        0.83226
B          0.78347       -1.68241        1.72043
B         -0.34647       -1.73924        0.87905
B         -5.88146       -1.58192       -0.77997
B         -6.05058        0.09397       -0.80639
B         -5.85822        1.75374       -0.78229
B          0.60580        0.52653       -0.29010
