45
isomer_3505.log	Energy: -113440.5660339
B         -2.54030        1.68480        0.47805
B         -2.54447        3.41552       -0.06082
B         -1.17048        4.16172       -0.18559
B          0.28975        3.40693        0.48049
B         -1.17532        0.89079        0.72743
B          1.76609        0.90346        1.01282
B          1.68891        4.12128       -0.29933
B         -3.93032        0.93838        0.16208
B          1.73608        2.52914        0.39785
B         -3.86163        2.56530       -0.17727
B          0.26107        4.69212       -0.45829
B          3.05954        3.28635       -0.26254
B          3.14202        1.72509        0.31853
B          4.46339        0.76920       -0.15377
B          0.28423       -1.79460        1.43918
B          1.45315       -2.28369       -0.18886
B          3.03045       -1.71827        0.18309
B          4.51829       -0.88918       -0.01070
B          4.24645       -2.47921       -0.73959
B          2.86939       -3.23005       -0.45938
B          1.52144       -4.07299       -0.34173
B          0.24895       -3.26826        0.54538
B          0.14634       -4.68488       -0.26056
B         -2.59418       -3.30798        0.04949
B         -1.24643       -4.10131       -0.00299
B         -2.60633       -1.62781        0.46790
B         -3.89369       -2.43681       -0.18262
B         -3.93341       -0.82484        0.15658
B         -1.20592       -2.46944        0.67721
B         -1.17700        2.55329        0.48515
B          3.21404       -0.03026        0.67611
B         -1.20255       -0.75438        0.71790
B          4.42453        2.43252       -0.60684
B         -5.19875        1.72294       -0.64054
B         -5.23704        0.06719       -0.27852
B         -5.23757       -1.59034       -0.65950
B         -6.31120       -0.68114       -1.27987
B         -6.28456        0.81541       -1.28541
B          1.65018       -0.83588        0.80895
B          0.24510        0.00816        1.18447
B          0.31912        1.80358        1.02227
B          5.53756        1.51454       -1.04505
B          5.67572       -0.06071       -1.06267
B          5.42259       -1.56949       -1.12567
B          0.13675       -1.29616       -0.22285
