45
isomer_3506.log	Energy: -113555.1148597
B         -3.14996       -1.24338       -1.61123
B         -3.06154       -2.79703       -0.96442
B         -2.08543       -2.98630        0.28268
B         -0.45124       -2.78963       -0.33103
B         -2.33433        0.05964       -0.66785
B          1.66079       -1.01352       -0.90521
B          0.62609       -3.79170        0.63826
B         -4.07418       -0.26116       -0.63246
B          1.21079       -2.58598       -0.48268
B         -4.44562       -1.99973       -0.72971
B         -0.85934       -3.75138        0.88145
B          2.21684       -3.52003        0.52336
B          2.75529       -2.10702       -0.13359
B          4.36935       -1.56210        0.07898
B          0.72473        1.74819       -1.19925
B          2.26680        2.28860       -0.58894
B          3.54332        1.24886       -0.46262
B          4.67024        0.08752        0.13555
B          4.86515        1.75112        0.56308
B          3.71469        2.80447        0.07677
B          2.46144        3.79910        0.17640
B          0.93989        3.33030       -0.66432
B          1.12123        4.40425        0.52491
B         -1.80871        3.47823        0.31743
B         -0.38970        4.07466        0.34394
B         -2.09490        1.83603       -0.31535
B         -3.23335        2.75821        0.56325
B         -3.64383        1.31817       -0.08991
B         -0.61645        2.61200       -0.46590
B         -1.64498       -1.61489       -0.95495
B          3.31951       -0.50515       -0.71004
B         -0.86425        0.93857       -0.87533
B          3.71164       -3.03358        0.90142
B         -4.87472       -1.30171        0.63613
B         -4.98659        0.50453        0.58233
B         -4.46349        2.00503        1.26184
B         -5.37704        1.02148        2.04998
B         -5.46524       -0.44739        1.81839
B          2.04126        0.64646       -1.09504
B         -3.03587       -1.45782        0.29285
B          0.08353       -1.51365       -1.23818
B          4.94588       -2.30857        1.37358
B          5.53924       -0.86880        1.26684
B          5.74071        0.67382        1.15946
B          0.43238        0.07127       -1.33086
