45
isomer_3507.log	Energy: -111707.7343813
B          2.60860       -1.60610        0.34285
B          2.61655       -3.23517       -0.07387
B          1.21798       -4.07544       -0.32831
B         -0.24515       -3.27221        0.24763
B          1.14090       -0.73782        0.67578
B         -1.73283       -0.80174        0.77469
B         -1.63012       -4.05773       -0.45177
B          4.05697       -0.71413        0.28170
B         -1.63858       -2.39211        0.17781
B          4.01394       -2.39603       -0.21265
B         -0.19868       -4.70189       -0.61311
B         -3.07146       -3.22687       -0.44007
B         -3.11315       -1.61893        0.16277
B         -4.58443       -0.81178       -0.30832
B         -0.32695        1.76841        0.89145
B         -1.72044        2.46168        0.28786
B         -3.16812        1.64072        0.23668
B         -4.61172        0.80662       -0.27162
B         -4.47169        2.37202       -0.48228
B         -3.18111        3.27481       -0.29265
B         -1.76859        4.15345       -0.26559
B         -0.35740        3.38417        0.39855
B         -0.35979        4.85214       -0.39648
B          2.50367        3.45820        0.07789
B          1.07738        4.26152       -0.13928
B          2.55094        1.81258        0.42036
B          3.92845        2.67378       -0.09770
B          4.02851        0.97361        0.31997
B          1.10798        2.60859        0.60848
B          1.19342       -2.45800        0.49360
B         -3.22023       -0.09944        0.59439
B          1.11360        0.88113        0.71249
B         -4.39188       -2.36042       -0.58958
B          5.32184       -1.55775       -0.70464
B          5.29267        0.06744       -0.43379
B          5.26347        1.90321       -0.62616
B          6.44160        0.98215       -1.25542
B          6.46778       -0.56995       -1.29061
B         -1.76058        0.84363        0.81200
B          1.05744       -2.24281        2.32368
B         -0.26879       -1.68034        0.81325
B         -5.91334       -1.67043       -0.78039
B         -6.13758        0.04029       -0.80562
B         -5.96903        1.77306       -0.77294
B          0.83794       -0.70612       -0.02103
