45
isomer_3508.log	Energy: -112754.8459916
B         -2.59238        1.73110        0.39750
B         -2.56985        3.37228        0.03260
B         -1.15906        4.19823       -0.19130
B          0.28765        3.35712        0.35382
B         -1.15350        0.84131        0.70125
B          1.73397        0.83795        0.79985
B          1.68611        4.13754       -0.31738
B         -4.03819        0.86239        0.30441
B          1.67295        2.45484        0.25514
B         -3.96866        2.55193       -0.13140
B          0.26676        4.79914       -0.45452
B          3.10932        3.28165       -0.33369
B          3.12714        1.65577        0.21425
B          4.58336        0.83312       -0.27923
B          0.28238       -1.72208        0.83593
B          1.67161       -2.41580        0.20997
B          3.12588       -1.61713        0.18473
B          4.57898       -0.78966       -0.29452
B          4.42274       -2.34921       -0.56010
B          3.10588       -3.23337       -0.39397
B          1.68513       -4.08753       -0.39632
B          0.28731       -3.32102        0.28907
B          0.27007       -4.74773       -0.54696
B         -2.56630       -3.33150       -0.03764
B         -1.15565       -4.15100       -0.27605
B         -2.58604       -1.69908        0.35886
B         -3.96805       -2.50727       -0.18565
B         -4.03809       -0.83359        0.28514
B         -1.16383       -2.53278        0.52180
B         -1.16801        2.56253        0.57231
B          3.20843        0.11020        0.59652
B         -1.14028       -0.81634        0.67791
B          4.42827        2.40066       -0.51693
B         -5.28383        1.74852       -0.65038
B         -5.27828        0.11701       -0.43304
B         -5.28021       -1.69284       -0.68480
B         -6.42756       -0.74327       -1.28079
B         -6.43583        0.80299       -1.26782
B          1.73384       -0.81403        0.78587
B         -1.12044       -1.17256        2.29627
B          0.29118        1.74702        0.86418
B          5.91026        1.66627       -0.72338
B          6.09922       -0.02643       -0.79870
B          5.90470       -1.73463       -0.82041
B         -0.37909        0.26924        0.03759
