45
isomer_0351.log	Energy: -111484.8806058
B          2.61697       -1.64859        0.36879
B          2.60853       -3.28459       -0.01983
B          1.20164       -4.11451       -0.26207
B         -0.25386       -3.28629        0.29758
B          1.15793       -0.75947        0.68434
B         -1.71645       -0.79177        0.77963
B         -1.64593       -4.06928       -0.39047
B          4.07467       -0.77292        0.29468
B         -1.63793       -2.39307        0.21035
B          4.01481       -2.46254       -0.17074
B         -0.22106       -4.73099       -0.53837
B         -3.07855       -3.22339       -0.39542
B         -3.10433       -1.60496        0.17960
B         -4.56642       -0.79077       -0.30770
B         -0.28400        1.76524        0.85446
B         -1.66929        2.46248        0.23676
B         -3.12539        1.65587        0.19734
B         -4.57688        0.82821       -0.29890
B         -4.42021        2.38822       -0.53622
B         -3.12056        3.28066       -0.36004
B         -1.69898        4.14489       -0.34578
B         -0.29687        3.37250        0.33380
B         -0.28279        4.82651       -0.48637
B          2.56528        3.41122        0.01659
B          1.14777        4.22549       -0.21670
B          2.59488        1.77134        0.38739
B          3.98205        2.60910       -0.14315
B          4.06376        0.91543        0.30386
B          1.16003        2.58545        0.55943
B          1.19277       -2.48298        0.53185
B         -3.19617       -0.07723        0.58484
B          1.14747        0.86007        0.69315
B         -4.38963       -2.34595       -0.56197
B          5.33209       -1.64652       -0.67493
B          5.31949       -0.01670       -0.43213
B          5.30973        1.81569       -0.65610
B          6.47910        0.87173       -1.26749
B          6.48913       -0.68094       -1.27594
B         -1.72708        0.85420        0.78859
B          0.68367       -0.28976        2.47839
B         -0.26171       -1.68476        0.83569
B         -5.90353       -1.64354       -0.76711
B         -6.10987        0.06873       -0.82213
B         -5.92329        1.79995       -0.81899
B          0.06898       -1.71147        0.13144
