45
isomer_3510.log	Energy: -112933.7839500
B          2.40214        1.73619       -0.44587
B          2.37854        3.39780       -0.09007
B          0.99553        4.25496        0.12768
B         -0.44766        3.43153       -0.39664
B          1.03427        0.93334       -0.95868
B         -1.77565        0.77447       -0.93024
B         -1.85707        4.14083        0.31309
B          3.89480        0.91627       -0.30488
B         -1.85492        2.49691       -0.31227
B          3.71392        2.51134        0.10256
B         -0.44401        4.78465        0.42715
B         -3.18541        3.19407        0.32525
B         -3.17765        1.61200       -0.25875
B         -4.48498        0.69512        0.23690
B         -0.32298       -1.78862       -1.12569
B         -1.57615       -2.57417       -0.30541
B         -3.00429       -1.80173       -0.21306
B         -4.37208       -0.98607        0.27915
B         -4.30873       -2.61310        0.68856
B         -2.88492       -3.33152        0.43367
B         -1.50236       -4.13817        0.44359
B         -0.13883       -3.44071       -0.38085
B         -0.08988       -4.71447        0.57524
B          2.68947       -3.32015       -0.01089
B          1.35335       -4.12009        0.19499
B          2.83472       -1.78265       -0.47241
B          4.06261       -2.50070        0.25783
B          4.04982       -0.84502       -0.27466
B          1.24010       -2.70612       -0.69150
B          1.00819        2.70012       -0.63345
B         -3.16972       -0.07458       -0.61754
B          0.72637       -0.51991       -0.97941
B         -4.57187        2.34276        0.58562
B          5.01115        1.82556        0.66634
B          5.12324        0.16912        0.46973
B          5.27079       -1.50184        0.77350
B          6.25881       -0.47684        1.40784
B          6.17432        1.03480        1.35657
B         -1.67688       -0.95115       -0.95689
B          1.65598       -1.30652       -1.52798
B         -0.46307        1.80302       -0.93987
B         -5.75718        1.39954        0.86143
B         -5.79977       -0.19747        0.88766
B         -5.58238       -1.75151        0.96003
B          0.57032        1.28869        0.45261
