45
isomer_3511.log	Energy: -112861.9964457
B         -2.53301       -1.65061       -0.50914
B         -2.59735       -3.30463       -0.09037
B         -1.18212       -4.14892        0.13432
B          0.27835       -3.34239       -0.40622
B         -1.06487       -0.82270       -0.79160
B          1.77599       -0.83174       -0.85313
B          1.64948       -4.14019        0.28346
B         -4.02353       -0.71018       -0.39316
B          1.68089       -2.46190       -0.29849
B         -4.01502       -2.46508        0.06299
B          0.22488       -4.75875        0.40631
B          3.08118       -3.31042        0.31303
B          3.14037       -1.68032       -0.24101
B          4.59661       -0.87175        0.26439
B          0.38251        1.79395       -0.91440
B          1.77259        2.45673       -0.28025
B          3.20158        1.62254       -0.23296
B          4.62227        0.76203        0.26544
B          4.50305        2.33664        0.53152
B          3.20132        3.24334        0.33827
B          1.80087        4.12903        0.31427
B          0.39992        3.39621       -0.38135
B          0.40407        4.80500        0.43674
B         -2.44791        3.45823       -0.08739
B         -1.03230        4.25363        0.15755
B         -2.50438        1.82573       -0.47047
B         -3.86678        2.64614        0.05744
B         -3.97410        0.98769       -0.39301
B         -1.06364        2.64576       -0.62509
B         -1.14614       -2.52819       -0.64692
B          3.25732       -0.11660       -0.63128
B         -1.04656        0.94236       -0.77675
B          4.42866       -2.45194        0.51661
B         -5.28662       -1.58951        0.55700
B         -5.23748        0.06758        0.32350
B         -5.18935        1.86263        0.55499
B         -6.35417        0.93594        1.14163
B         -6.41090       -0.58825        1.14675
B          1.80808        0.84448       -0.84714
B         -2.98107       -1.46411        0.65426
B          0.32043       -1.73175       -0.93014
B          5.88319       -1.70795        0.72535
B          6.08761       -0.03284        0.78758
B          5.93386        1.63327        0.79976
B         -0.47776        0.06181        0.02712
