45
isomer_3512.log	Energy: -113576.0770878
B         -2.45448        1.70548        0.51784
B         -2.47464        3.42425        0.04100
B         -1.10252        4.27596        0.13028
B          0.35861        3.45464        0.78662
B         -1.00273        0.91731        0.96725
B          1.81884        0.83377        0.75085
B          1.73318        4.15911       -0.14243
B         -3.78285        0.85789        0.02999
B          1.78625        2.57053        0.46741
B         -3.74719        2.51108       -0.32399
B          0.31705        4.76202       -0.18326
B          3.07508        3.31171       -0.24555
B          3.20270        1.68301        0.22275
B          4.54526        0.79364       -0.22356
B          0.34096       -1.81598        1.19440
B          1.75211       -2.59633        0.61538
B          3.09121       -1.74207        0.20803
B          4.46078       -0.89129       -0.38466
B          4.25673       -2.56324       -0.85989
B          2.95599       -3.32923       -0.31756
B          1.58104       -4.15913       -0.23455
B          0.24166       -3.37759        0.55872
B          0.16210       -4.74613       -0.28011
B         -2.62158       -3.33686        0.24997
B         -1.23917       -4.15666        0.09304
B         -2.81274       -1.74112        0.71547
B         -3.95669       -2.49661       -0.28420
B         -3.91748       -0.80964        0.08780
B         -1.26593       -2.54305        0.80557
B         -1.15994        2.66205        0.62564
B          3.31366       -0.06492        0.54729
B         -2.30734       -0.10339        0.72864
B          4.32848        2.41290       -0.82576
B         -4.97470        1.73611       -0.97142
B         -5.07578        0.06286       -0.68939
B         -5.12593       -1.64700       -0.97266
B         -6.07146       -0.67467       -1.71483
B         -6.01558        0.83927       -1.71678
B          1.85111       -0.88591        1.03151
B         -0.98763       -0.87293        1.15456
B          0.37590        1.85560        1.12537
B          5.26951        1.44592       -1.48308
B          5.49410       -0.09953       -1.49259
B          5.31094       -1.66589       -1.48077
B          0.47311        0.04408        1.17162
