45
isomer_3514.log	Energy: -113375.5640794
B         -2.57601       -1.52394       -0.46628
B         -2.65242       -3.29716       -0.16211
B         -1.26728       -4.09001       -0.00662
B          0.19146       -3.29545       -0.52982
B         -1.13091       -0.79955       -0.79834
B          1.71581       -0.84139       -0.93445
B          1.49749       -4.13247        0.33590
B         -3.90616       -0.74450       -0.26300
B          1.45701       -2.32870       -0.13210
B         -3.89219       -2.43242        0.10531
B          0.11463       -4.71535        0.28738
B          2.83749       -3.24159        0.43124
B          2.98856       -1.70676       -0.13443
B          4.45201       -0.87241        0.18223
B          0.31965        1.78721       -0.92701
B          1.71115        2.56172       -0.29083
B          3.11345        1.73689       -0.24116
B          4.51069        0.81613        0.09081
B          4.41600        2.45003        0.61887
B          3.03702        3.33315        0.29819
B          1.66747        4.16018        0.27885
B          0.27938        3.44287       -0.58772
B          0.21785        4.71427        0.37194
B         -2.57063        3.43816       -0.05825
B         -1.19941        4.21717        0.02752
B         -2.49970        1.72076       -0.45584
B         -3.84839        2.52766        0.17011
B         -3.91761        0.93089       -0.26924
B         -1.18138        2.59734       -0.59726
B         -1.27757       -2.52886       -0.79547
B          3.21790       -0.02076       -0.60442
B         -1.16007        0.89228       -0.75682
B          4.22447       -2.49834        0.73648
B         -5.11569       -1.57527        0.77385
B         -5.06039        0.07399        0.55605
B         -5.11780        1.73148        0.74864
B         -6.18403        0.83705        1.44280
B         -6.17272       -0.68933        1.45652
B          1.74799        0.88498       -0.85136
B          0.27037        0.02910       -1.25693
B          0.28720       -1.77161       -1.50242
B          5.40273       -1.59500        1.21235
B          5.63981       -0.06963        1.13315
B          5.49681        1.51445        1.11294
B         -0.08409       -1.62727        0.25075
