45
isomer_3515.log	Energy: -113434.6978590
B          2.60521       -1.63066        0.67878
B          2.52200       -3.23729        0.06127
B          1.17000       -4.11579       -0.04450
B         -0.30563       -3.37623        0.49087
B          1.13128       -0.83747        1.03734
B         -1.56502       -0.74811        0.09541
B         -1.63595       -4.14551       -0.34869
B          4.02115       -0.79820        0.41975
B         -1.69716       -2.50512        0.27230
B          3.88148       -2.36207       -0.14351
B         -0.22231       -4.72051       -0.36702
B         -3.04661       -3.30381       -0.37503
B         -3.06957       -1.69447       -0.06251
B         -4.53907       -0.82849       -0.01546
B         -0.25635        1.64137        0.63824
B         -1.68852        2.49166        0.52119
B         -3.12295        1.75232        0.40403
B         -4.40483        0.82974       -0.26273
B         -4.42776        2.52727       -0.45885
B         -3.01217        3.29663       -0.11656
B         -1.62772        4.18485       -0.11784
B         -0.24508        3.26784        0.21192
B         -0.21330        4.77055       -0.27130
B          2.59065        3.26379       -0.08633
B          1.21069        4.10257       -0.18215
B          2.66633        1.58373        0.35954
B          3.99029        2.41875       -0.26153
B          4.09877        0.87660        0.40575
B          1.27216        2.45642        0.33449
B          1.21401       -2.55565        0.68129
B         -3.13156       -0.01047        0.47063
B          1.20947        0.69710        0.59986
B         -4.42027       -2.47270       -0.71146
B          5.15554       -1.65606       -0.67526
B          5.31229       -0.00286       -0.33925
B          5.28445        1.67308       -0.69803
B          6.39021        0.72041       -1.29971
B          6.30519       -0.76696       -1.33123
B         -1.69418        0.75480        1.08522
B         -0.32678       -0.07725        1.58269
B         -0.35253       -1.73352        0.93631
B         -5.51304       -1.48724       -1.07677
B         -5.74384        0.07146       -0.98195
B         -5.59093        1.63937       -0.90640
B         -0.17802        0.04614       -0.15281
