45
isomer_3517.log	Energy: -113348.9782106
B          2.69695       -1.64698        0.46563
B          2.71759       -3.31276       -0.01368
B          1.36540       -4.06268        0.10590
B         -0.09817       -3.28309        0.81864
B          1.37204       -0.75651        0.73865
B         -1.67249       -0.82587        0.49320
B         -1.45829       -4.11124       -0.01106
B          3.94462       -0.79095        0.02001
B         -1.58453       -2.52849        0.46740
B          3.93347       -2.43225       -0.39281
B         -0.02567       -4.61697       -0.09613
B         -2.88468       -3.39645       -0.13824
B         -3.03411       -1.76521        0.16369
B         -4.47381       -0.99837       -0.22287
B         -0.37835        1.60767        1.17264
B         -1.84412        2.49460        0.54273
B         -3.18378        1.60630        0.14560
B         -4.51711        0.71125       -0.37772
B         -4.43049        2.38382       -0.82547
B         -3.17717        3.24099       -0.21320
B         -1.82410        4.08878       -0.05165
B         -0.38342        3.30016        0.71321
B         -0.43206        4.69305       -0.08676
B          2.40941        3.33378        0.05650
B          0.98345        4.12020        0.09236
B          2.51833        1.70218        0.47883
B          3.76195        2.53118       -0.27636
B          3.87402        0.93232        0.01950
B          1.12958        2.56063        0.73842
B          1.33314       -2.43647        0.73230
B         -3.24663       -0.05996        0.46802
B          1.20201        0.83686        0.99400
B         -4.20695       -2.63278       -0.77542
B          5.19383       -1.52009       -0.94013
B          5.16799        0.11348       -0.54709
B          5.08899        1.79481       -0.87396
B          6.13065        0.94071       -1.59919
B          6.19433       -0.56562       -1.62634
B         -1.75834        0.83506        0.51797
B          0.12580       -0.04097        1.95478
B         -0.17772       -1.58949        1.27194
B         -5.18271       -1.70718       -1.46785
B         -5.49953       -0.16388       -1.45996
B         -5.42663        1.41024       -1.46897
B         -0.24267        0.00618        0.29293
