45
isomer_3518.log	Energy: -113675.8842603
B         -2.56485       -1.72998       -0.53208
B         -2.51623       -3.30347        0.03633
B         -1.15993       -4.14897        0.10779
B          0.26687       -3.40343       -0.54010
B         -1.17151       -0.85111       -1.06831
B          1.71598       -0.84346       -0.78189
B          1.63912       -4.17082        0.25795
B         -3.98499       -0.84377       -0.22480
B          1.72220       -2.55215       -0.42833
B         -3.87109       -2.48365        0.27563
B          0.21630       -4.74818        0.35212
B          3.00653       -3.34284        0.27862
B          3.12739       -1.73476       -0.21917
B          4.54698       -0.89695        0.14266
B          0.37104        1.82452       -1.11763
B          1.80419        2.53222       -0.49017
B          3.17478        1.67905       -0.26096
B          4.53173        0.79493        0.24024
B          4.40927        2.44326        0.74778
B          3.09466        3.27938        0.26503
B          1.75115        4.14354        0.24542
B          0.35349        3.38411       -0.51355
B          0.34503        4.74579        0.35145
B         -2.42527        3.33617        0.03952
B         -1.04475        4.15752        0.12278
B         -2.50754        1.76053       -0.48716
B         -3.80814        2.53875        0.29296
B         -3.95560        0.91245       -0.21569
B         -1.11740        2.59029       -0.76396
B         -1.18758       -2.57736       -0.78941
B          3.29314       -0.01706       -0.60928
B         -1.12836        0.84881       -1.04011
B          4.32389       -2.50140        0.77122
B         -5.10533       -1.64903        0.84510
B         -5.19560        0.04703        0.52262
B         -5.05956        1.74127        0.86478
B         -6.08444        0.81719        1.61240
B         -6.10575       -0.70329        1.60512
B          1.78916        0.83049       -0.91463
B         -2.60971        0.01684       -0.74620
B          0.31153       -1.83040       -1.08595
B          5.37003       -1.57069        1.33895
B          5.62020       -0.03517        1.30425
B          5.47613        1.51713        1.29950
B          0.34287       -0.00331       -1.09083
