45
isomer_0352.log	Energy: -113399.8104366
B          2.64881        1.81349       -0.78128
B          2.54118        3.39405       -0.08249
B          1.22849        4.14433        0.06869
B         -0.17791        3.32817       -0.40824
B          1.83189        0.48959       -0.86531
B         -1.66004        0.88524       -0.85069
B         -1.59903        4.19865        0.17906
B          3.81681        0.94020       -0.12463
B         -1.73541        2.64659       -0.57657
B          3.81345        2.59906        0.21926
B         -0.17079        4.74453        0.29824
B         -2.98541        3.37508        0.18363
B         -3.03978        1.74469       -0.23228
B         -4.45508        0.85469        0.03628
B         -0.42956       -1.92913       -1.51637
B         -1.32292       -2.31182        0.11841
B         -2.91729       -1.69922       -0.10189
B         -4.26547       -0.74616        0.41388
B         -4.15173       -2.39447        0.89989
B         -2.79661       -3.16351        0.56729
B         -1.53461       -4.09745        0.33055
B         -0.36289       -3.46878       -0.77475
B         -0.18734       -4.74692        0.19590
B          2.43448       -3.31490       -0.11668
B          1.17409       -4.16378       -0.17675
B          2.40004       -1.55188       -0.49926
B          3.66829       -2.38482        0.23059
B          3.71034       -0.77889       -0.04648
B          1.12067       -2.58721       -0.92142
B          1.20589        2.33639       -0.59196
B         -3.09384        0.01698       -0.52832
B          1.06794       -0.93772       -1.24260
B         -4.35632        2.53051        0.56218
B          5.07132        1.71836        0.76849
B          4.99075        0.06247        0.53536
B          4.92685       -1.59831        0.94351
B          5.98390       -0.73053        1.59569
B          6.01528        0.77164        1.57223
B         -1.64097       -0.85829       -1.05040
B         -0.10484        0.15906       -0.93170
B         -0.27646        1.81223       -0.95674
B         -5.38946        1.59700        1.10405
B         -5.55850        0.02610        1.18810
B         -5.33469       -1.49805        1.31431
B         -0.10354       -1.22728        0.05123
