45
isomer_3521.log	Energy: -113353.1343282
B          2.48680       -1.67730        0.43522
B          2.40275       -2.93564       -0.90189
B          1.09674       -3.84320       -0.86310
B         -0.10929       -3.08667        0.34657
B          1.20430       -0.57996        0.93664
B         -1.75425       -0.63696        0.78309
B         -1.61455       -3.97617       -0.11532
B          3.80274       -0.68452        0.09761
B         -1.70111       -2.34038        0.55996
B          3.77811       -2.17141       -0.63255
B         -0.31839       -4.43545       -0.64284
B         -3.01143       -3.21786       -0.00660
B         -3.17042       -1.63172        0.47705
B         -4.63829       -0.80438        0.24993
B         -0.38295        1.83255        1.06398
B         -1.79366        2.56656        0.38210
B         -3.18331        1.75612        0.19848
B         -4.53787        0.80972       -0.21630
B         -4.47973        2.45947       -0.73937
B         -3.09553        3.26147       -0.44661
B         -1.67600        4.05584       -0.54605
B         -0.32779        3.39681        0.29618
B         -0.26092        4.64038       -0.68968
B          2.49319        3.36727       -0.00981
B          1.12656        4.09466       -0.29865
B          2.49869        1.70775        0.59700
B          3.80038        2.57567       -0.04404
B          3.88506        0.97129        0.35240
B          1.10914        2.59271        0.69578
B          1.66986       -3.33809        0.64689
B         -3.29837        0.11853        0.72254
B          1.03373        0.99687        1.03292
B         -4.42474       -2.42949       -0.34361
B          5.14780       -1.42012       -0.72622
B          5.26776        0.11982        0.04191
B          5.24101        1.77908       -0.32959
B          6.39081        0.99459       -0.88127
B          6.27266       -0.44409       -1.15317
B         -1.79838        0.95553        0.98827
B          1.00540       -1.90809       -0.40716
B         -0.29204       -1.35852        0.63024
B         -5.48167       -1.51862       -0.93022
B         -5.80590       -0.00940       -0.99189
B         -5.64978        1.53262       -1.09967
B          1.09287       -2.13729        1.48084
