45
isomer_3523.log	Energy: -112106.8637011
B         -2.53896       -1.68514       -0.59218
B         -2.53814       -3.32568       -0.22307
B         -1.13623       -4.15891        0.03611
B          0.32981       -3.32455       -0.48562
B         -1.07404       -0.79281       -0.86907
B          1.80163       -0.82493       -0.90969
B          1.70836       -4.11619        0.21954
B         -3.99771       -0.80994       -0.53552
B          1.71205       -2.43291       -0.36122
B         -3.94695       -2.50503       -0.08929
B          0.28085       -4.77914        0.33220
B          3.14071       -3.27090        0.26204
B          3.17768       -1.64571       -0.29297
B          4.63026       -0.83790        0.23195
B          0.37115        1.73327       -0.98132
B          1.74444        2.42260       -0.32891
B          3.19943        1.61509       -0.27128
B          4.64105        0.78107        0.24272
B          4.48004        2.33817        0.49565
B          3.18410        3.23310        0.30531
B          1.76315        4.09791        0.27419
B          0.37422        3.33418       -0.44131
B          0.34459        4.77828        0.39579
B         -2.49348        3.37007       -0.17852
B         -1.08060        4.18101        0.09159
B         -2.51614        1.73475       -0.56942
B         -3.91313        2.56658       -0.05555
B         -3.98645        0.87840       -0.52428
B         -1.07818        2.55037       -0.70420
B         -1.11198       -2.51801       -0.73792
B          3.27743       -0.11327       -0.67807
B         -1.06324        0.82671       -0.85829
B          4.44846       -2.39595        0.46416
B         -5.27357       -1.69465        0.39932
B         -5.25614       -0.06204        0.17633
B         -5.25047        1.76753        0.42235
B         -6.43144        0.81672        0.99990
B         -6.44180       -0.73594        0.98957
B          1.81261        0.82102       -0.89874
B         -1.97425       -0.71696        3.22996
B          0.34814       -1.71670       -1.00428
B          5.95823       -1.69656        0.70664
B          6.16366        0.01486        0.78608
B          5.97736        1.74606        0.80009
B         -1.76652        0.55206        0.72923
