45
isomer_3529.log	Energy: -113452.6507060
B         -2.24793        2.04781        0.59277
B         -2.02100        3.60280       -0.18464
B         -0.59365        4.26972       -0.38031
B          0.76440        3.40849        0.33366
B         -0.97314        1.11681        1.08636
B          1.95955        0.78647        1.10280
B          2.19487        3.94546       -0.47610
B         -3.68055        1.31119        0.23044
B          2.09614        2.41244        0.45194
B         -3.41760        2.86403       -0.32002
B          0.84992        4.67439       -0.66697
B          3.43533        2.92706       -0.41456
B          3.39240        1.41289        0.26650
B          4.64020        0.29743       -0.14621
B          0.25270       -1.61466        1.50228
B          1.31738       -2.46872        0.51062
B          2.84027       -1.93923        0.26136
B          4.34890       -1.33058       -0.14665
B          3.81240       -2.88125       -0.82277
B          2.33145       -3.39346       -0.39383
B          0.76203       -3.83709       -0.35803
B         -0.34555       -3.01081        0.58804
B         -0.73546       -4.10433       -0.58803
B         -3.42990       -3.35334       -0.72469
B         -2.24168       -4.17238       -0.83175
B         -2.58327       -1.24522        0.95170
B         -3.71202       -1.94665       -0.16782
B         -3.82808       -0.40854        0.39566
B         -2.16191       -2.89740        0.26785
B         -0.79154        2.77512        0.58052
B          3.31432       -0.31689        0.71625
B         -1.11142       -0.43623        1.19404
B          4.64351        1.91209       -0.80154
B         -4.75689        2.13200       -0.83008
B         -5.01337        0.53785       -0.33962
B         -5.00819       -1.14432       -0.68732
B         -5.98685       -0.24915       -1.44104
B         -5.83420        1.22675       -1.54591
B          1.71858       -0.89914        1.20844
B          0.40464        0.18913        1.46347
B          0.62823        1.92058        1.04173
B          5.57078        0.83944       -1.33275
B          5.50833       -0.70465       -1.32002
B          5.04679       -2.18776       -1.32436
B         -1.35891       -2.06814        1.49861
