45
isomer_0353.log	Energy: -113458.7422962
B         -2.56770       -1.60834       -0.43594
B         -2.52451       -3.31472        0.04589
B         -1.22642       -4.12653       -0.19296
B          0.23240       -3.33104       -0.94401
B         -1.21768       -0.73852       -0.82920
B          1.57684       -0.75277       -0.51350
B          1.55433       -4.14125        0.00602
B         -3.89305       -0.85311       -0.10226
B          1.40565       -2.41389       -0.04551
B         -3.80569       -2.45350        0.31023
B          0.18049       -4.71788       -0.08220
B          2.87090       -3.28672        0.30505
B          2.99746       -1.71845       -0.10401
B          4.46139       -0.86906        0.10780
B          0.32680        1.81899       -1.21181
B          1.71057        2.56979       -0.47559
B          3.08755        1.74536       -0.22224
B          4.35935        0.78648        0.39953
B          4.33632        2.46384        0.76384
B          3.01695        3.32189        0.26871
B          1.64898        4.15838        0.19897
B          0.27548        3.43738       -0.65589
B          0.22531        4.70695        0.31543
B         -2.53680        3.38383       -0.05444
B         -1.18790        4.14759        0.01980
B         -2.54878        1.66367       -0.63417
B         -3.79753        2.51527        0.20217
B         -3.90528        0.91385       -0.15276
B         -1.19988        2.57826       -0.74559
B         -1.08634       -2.40883       -0.25957
B          3.14860       -0.00136       -0.49810
B         -1.20236        0.93859       -1.06919
B          4.20632       -2.50352        0.76506
B         -5.11860       -1.60892        0.86902
B         -5.15178        0.03681        0.44980
B         -5.09191        1.69101        0.77240
B         -6.12617        0.79809        1.52117
B         -6.13187       -0.69862        1.55598
B          1.74943        0.92381       -0.98523
B          0.09738       -1.25324        0.23462
B          0.28723       -1.73374       -1.45851
B          5.31278       -1.56377        1.26283
B          5.57492       -0.04194        1.26903
B          5.43077        1.53550        1.27571
B          0.24606        0.00435       -1.24639
