45
isomer_3530.log	Energy: -113639.6289520
B         -2.45045       -0.01419       -0.33361
B         -2.60059       -3.36761       -0.06798
B         -1.20684       -4.11849        0.24510
B          0.25088       -3.32789       -0.25913
B         -1.11766       -0.82450       -0.94476
B          1.76903       -0.84432       -0.82356
B          1.63271       -4.09878        0.43433
B         -3.89275       -0.84056        0.03368
B          1.73229       -2.56889       -0.50834
B         -4.00967       -2.54470        0.12599
B          0.19326       -4.61889        0.67092
B          3.03324       -3.33709        0.24854
B          3.14867       -1.76019       -0.26888
B          4.61479       -0.92088       -0.01869
B          0.37243        1.84194       -1.04529
B          1.81990        2.51903       -0.44586
B          3.16588        1.66659       -0.18114
B          4.58350        0.76877        0.09767
B          4.48783        2.39156        0.68188
B          3.11511        3.24600        0.31686
B          1.77935        4.13145        0.30165
B          0.37772        3.40143       -0.48896
B          0.38774        4.74809        0.40588
B         -2.40508        3.37797        0.19045
B         -1.01552        4.19013        0.20461
B         -2.42709        1.77260       -0.19235
B         -3.82611        2.57247        0.39835
B         -3.80045        0.89890        0.22632
B         -1.11146        2.61915       -0.65704
B         -1.18685       -2.53131       -0.59052
B          3.28915       -0.03593       -0.63030
B         -1.09473        0.87532       -0.89961
B          4.41026       -2.54831        0.60312
B         -5.34992       -1.68188        0.42192
B         -5.21596        0.05196        0.46833
B         -5.21197        1.76514        0.68915
B         -6.50260        0.83135        0.91481
B         -6.56224       -0.70534        0.77486
B          1.78253        0.83240       -0.95830
B         -2.52808       -1.74714       -0.20430
B          0.36578        0.01028       -1.13161
B          5.50845       -1.62421        1.09582
B          5.75960       -0.08767        1.06048
B          5.61405        1.47443        1.08632
B          0.32191       -1.83820       -1.04680
