45
isomer_3532.log	Energy: -113346.3961064
B          2.24427        1.74511       -0.18398
B          1.98253        3.38071        0.32750
B          0.50871        4.03778        0.45168
B         -0.79595        3.12620       -0.11845
B          0.90933        0.71503       -0.59221
B         -1.95077        0.61713       -0.88736
B         -2.28748        3.91161        0.10113
B          3.79858        1.33409       -0.35051
B         -2.11733        2.25191       -0.61053
B          3.46349        2.77607        0.43377
B         -0.96376        4.57977        0.48113
B         -3.60291        2.98611       -0.13487
B         -3.55157        1.40121       -0.58759
B         -4.86619        0.32296       -0.38384
B         -0.20730       -1.56903       -1.28089
B         -1.30024       -2.27528       -0.09846
B         -2.88515       -1.85619       -0.14895
B         -4.38551       -1.17324        0.22622
B         -3.92182       -2.60051        1.03476
B         -2.38520       -3.18301        0.79468
B         -0.91027       -3.64336        0.87917
B          0.26681       -2.89149       -0.26243
B          0.62237       -4.01214        0.89019
B          2.98865       -2.91641       -0.51203
B          1.87728       -3.87296        0.06786
B          2.67258       -1.19307       -0.71322
B          4.23270       -1.88316       -0.33772
B          4.06051       -0.26756       -0.63964
B          1.45923       -2.22436       -1.31953
B          0.74921        2.38459       -0.06512
B         -3.39157       -0.34070       -0.88380
B          1.20591       -0.54038       -1.50262
B         -4.86418        2.08131        0.16731
B          4.84800        2.19009        0.85940
B          5.09603        0.58339        0.36753
B          5.40497       -1.07758        0.26237
B          6.39845       -0.07569        1.01914
B          6.14391        1.37656        1.28169
B         -1.75680       -0.98471       -1.12371
B          1.73070       -2.28513        0.57456
B         -0.62761        1.47746       -0.62305
B         -5.79411        1.00916        0.74222
B         -5.76717       -0.48685        0.97784
B         -5.24442       -1.93980        1.32432
B          0.91309       -0.99565        0.09601
