45
isomer_3533.log	Energy: -113469.3822489
B         -2.60294        1.61457        0.72537
B         -2.59811        3.29764       -0.05420
B         -1.25386        4.10097       -0.26878
B          0.22482        3.36095        0.24035
B         -1.20756        0.86857        1.01572
B          1.71809        0.89947        0.76525
B          1.58881        4.19608       -0.43340
B         -4.00218        0.87482        0.45519
B          1.67376        2.58246        0.40167
B         -3.89239        2.43975       -0.02481
B          0.17036        4.72580       -0.57477
B          2.99393        3.37051       -0.36984
B          3.10988        1.82966        0.20709
B          4.56007        0.92311        0.02877
B          0.25463       -1.62912        0.59403
B          1.72656       -2.47368        0.46908
B          3.12888       -1.67052        0.46026
B          4.38558       -0.72214       -0.21171
B          4.47579       -2.39944       -0.41964
B          3.08471       -3.24610       -0.08863
B          1.75351       -4.10064       -0.17745
B          0.20731       -3.32294        0.53332
B          0.42209       -4.51392       -0.62113
B         -2.37222       -3.11348       -0.52958
B         -1.00139       -3.85322       -0.59480
B         -2.50670       -1.75304        0.58138
B         -3.75974       -2.33049       -0.46326
B         -3.89207       -0.88515        0.25738
B         -1.28974       -2.78679        1.01860
B         -1.23062        2.47871        0.37588
B          3.20980        0.09825        0.61217
B         -1.21441       -0.74513        0.62162
B          4.37121        2.56614       -0.64660
B         -5.28866        1.64609       -0.37520
B         -5.27296       -0.02008       -0.06556
B         -5.14242       -1.57823       -0.69971
B         -6.26627       -0.66732       -1.23448
B         -6.34554        0.79225       -1.06263
B          1.71182       -0.75156        1.06340
B         -0.98846       -2.04330       -0.55141
B          0.28106        1.75225        0.73077
B          5.48156        1.59577       -1.08513
B          5.73949        0.07950       -0.97169
B          5.60275       -1.50675       -0.87939
B          0.25176        0.01970        1.24650
