45
isomer_3534.log	Energy: -113407.1169190
B          2.52547        1.82048       -0.64570
B          2.42913        3.42516       -0.06248
B          1.02748        4.17965        0.09679
B         -0.38718        3.41533       -0.47323
B          1.18196        0.99241       -1.23143
B         -1.83821        0.92956       -0.97738
B         -1.78660        4.09682        0.34039
B          3.84830        1.02944       -0.05963
B         -1.85878        2.57480       -0.42664
B          3.82741        2.67187        0.12797
B         -0.37067        4.72100        0.43405
B         -3.15015        3.25602        0.37292
B         -3.17595        1.67505       -0.17297
B         -4.52089        0.75162        0.31277
B         -0.22542       -1.53732       -0.87699
B         -1.61799       -2.49085       -0.47474
B         -3.06384       -1.71023       -0.21568
B         -4.56129       -0.91821        0.03270
B         -4.25460       -2.51638        0.69138
B         -2.87560       -3.28568        0.29597
B         -1.44653       -4.03764        0.22223
B         -0.08154       -3.21468       -0.44900
B          0.00295       -4.58303        0.45515
B          2.53904       -3.12260        0.11998
B          1.43198       -4.17361        0.67286
B          2.56985       -1.43378       -0.45092
B          3.79594       -2.19523        0.40320
B          3.87627       -0.62090       -0.04858
B          1.32936       -2.35989       -1.13143
B          1.15060        2.67194       -0.79163
B         -3.25047       -0.00596       -0.56630
B          1.30396       -0.66771       -1.16769
B         -4.49712        2.39727        0.77466
B          5.09223        1.92724        0.72290
B          5.24756        0.23235        0.37373
B          5.14195       -1.39473        0.89044
B          6.17694       -0.48616        1.53728
B          6.07242        1.00577        1.53682
B         -1.67639       -0.79127       -0.77662
B          1.38828       -3.93292       -0.87371
B         -0.38467        1.82794       -1.13969
B         -5.60355        1.46411        1.22150
B         -5.70164       -0.11848        1.19435
B         -5.37584       -1.61858        1.21718
B         -0.25415        0.15004       -1.03476
