45
isomer_3535.log	Energy: -113357.3150837
B         -2.84418       -0.66163       -0.98847
B         -2.61376       -3.14923        0.09948
B         -1.72257       -4.34050        0.50953
B          0.39909       -3.54393       -0.96980
B         -1.28818       -0.51054       -1.38818
B          1.58159       -0.85440       -0.81933
B          1.35000       -4.07805        0.31007
B         -4.25778       -0.52670       -0.48929
B          1.52229       -2.47600       -0.53070
B         -3.60638       -1.92662       -0.05749
B         -0.17246       -4.43526        0.41588
B          2.73831       -3.35834        0.38523
B          2.99418       -1.84081       -0.26926
B          4.41021       -1.00161        0.24057
B          0.38836        1.87085       -1.20547
B          1.82035        2.44582       -0.59094
B          3.16633        1.59338       -0.27683
B          4.47029        0.64866        0.31373
B          4.42526        2.31059        0.74098
B          3.14678        3.17440        0.20089
B          1.87047        4.10246        0.16896
B          0.46731        3.42839       -0.60356
B          0.52034        4.76549        0.28163
B         -2.26270        3.47995        0.06563
B         -0.89708        4.23820        0.09972
B         -2.45083        1.86336       -0.49706
B         -3.58237        2.64920        0.40635
B         -3.95105        1.14108       -0.17250
B         -1.07772        2.71467       -0.80761
B         -1.90695       -1.97334       -1.10884
B          3.20045       -0.10356       -0.55200
B         -1.18665        1.05098       -1.14660
B          4.07300       -2.55047        0.89554
B         -4.84746       -1.42184        0.83361
B         -5.12309        0.27896        0.68579
B         -4.64384        1.80508        1.26608
B         -5.45963        0.80996        2.16635
B         -5.59426       -0.66370        1.94970
B          1.71397        0.76639       -0.95307
B         -1.10496       -3.23789       -0.46351
B         -0.05561       -1.97631       -1.20104
B          5.17835       -1.70653        1.50404
B          5.54392       -0.17735        1.43691
B          5.49873        1.39874        1.31815
B          0.16992       -0.02204       -1.20329
