45
isomer_3536.log	Energy: -113223.5908405
B          2.25548        1.75243       -0.56235
B          2.16458        3.42584       -0.01472
B          0.77473        4.23375        0.16006
B         -0.62448        3.52062       -0.51387
B          0.84509        1.13093       -1.11362
B         -1.77687        0.90044       -1.04156
B         -2.03849        4.07261        0.38055
B          3.78661        1.12870       -0.29431
B         -2.02010        2.55726       -0.43568
B          3.49057        2.62473        0.23698
B         -0.65396        4.72593        0.52620
B         -3.34760        3.09071        0.40101
B         -3.32233        1.57464       -0.25979
B         -4.52412        0.53289        0.24866
B         -0.19192       -1.93960       -1.20446
B         -1.46557       -2.56535       -0.41054
B         -2.87705       -1.85453       -0.29700
B         -4.28937       -1.14360        0.13994
B         -4.12297       -2.75499        0.67222
B         -2.66732       -3.43670        0.28035
B         -1.19419       -4.08999        0.36257
B          0.14935       -3.28403       -0.50780
B          0.29679       -4.57544        0.42453
B          2.86265       -3.13250       -0.15417
B          1.68846       -4.12731        0.04097
B          2.74948       -1.39794       -0.64923
B          4.12987       -2.17418       -0.05344
B          4.01207       -0.52889       -0.34206
B          1.35753       -2.08731       -0.87950
B          0.86641        2.75900       -0.74106
B         -3.19474       -0.13435       -0.61418
B          1.73846       -0.07645       -0.90473
B         -4.67141        2.19006        0.71159
B          4.83554        2.01469        0.85504
B          4.97520        0.36358        0.59866
B          5.25078       -1.27058        0.70932
B          6.10793       -0.28388        1.54693
B          5.95208        1.23554        1.54948
B         -1.61191       -0.72402       -0.92178
B          1.44415       -2.60129        0.70573
B         -0.58800        1.93570       -1.20429
B         -5.69201        1.13369        1.15614
B         -5.66365       -0.40730        1.14073
B         -5.24630       -1.91085        1.18580
B          0.05055       -0.40268       -0.91332
