45
isomer_3538.log	Energy: -113382.9529036
B          2.48027        1.70030       -0.53680
B          2.48388        3.41753        0.02823
B          1.12676        4.18837        0.22696
B         -0.32485        3.44956       -0.36645
B          1.15032        1.00922       -1.08575
B         -1.71282        0.88550       -0.85239
B         -1.69162        4.18264        0.42327
B          3.82689        0.92814       -0.16433
B         -1.74361        2.59593       -0.48520
B          3.78721        2.55301        0.16245
B         -0.29595        4.76554        0.54997
B         -3.03963        3.29358        0.40130
B         -3.08480        1.72960       -0.14352
B         -4.44960        0.78197        0.27618
B         -0.17023       -1.82127       -1.10511
B         -1.65063       -2.51155       -0.61428
B         -3.06556       -1.68986       -0.35257
B         -4.52295       -0.84351       -0.08300
B         -4.33809       -2.48723        0.49794
B         -2.99565       -3.27542        0.10058
B         -1.63158       -4.05030        0.37536
B         -0.20455       -3.23272       -0.08258
B         -0.28241       -4.59674        0.76968
B          2.50723       -3.25223        0.60952
B          1.16660       -4.02595        0.71943
B          2.53742       -1.73224       -0.66509
B          3.69957       -2.32510        0.49173
B          3.82960       -0.83091       -0.17918
B          1.39766       -2.99817       -0.58916
B          1.16748        2.69377       -0.70016
B         -3.20178        0.02377       -0.60601
B          1.33392       -0.58471       -1.31518
B         -4.34864        2.43225        0.81304
B          5.09068        1.74007        0.67369
B          5.13608        0.08040        0.31211
B          5.07041       -1.50623        0.82720
B          6.14592       -0.61966        1.43242
B          6.13240        0.85931        1.37916
B         -1.58415       -0.78121       -0.79941
B          1.33678       -2.02500       -1.81531
B         -0.34435        1.93422       -1.07907
B         -5.46423        1.48565        1.27879
B         -5.63685       -0.04686        1.17552
B         -5.39057       -1.57104        1.07424
B         -0.23199        0.07758       -0.97824
