45
isomer_3539.log	Energy: -110382.5235249
B          2.65432       -1.65791        0.37960
B          2.65083       -3.29325       -0.01188
B          1.24677       -4.12487       -0.26448
B         -0.21351       -3.29982        0.28732
B          1.19195       -0.77154        0.68740
B         -1.68292       -0.80834        0.76436
B         -1.59999       -4.08372       -0.41091
B          4.11112       -0.77992        0.31627
B         -1.59836       -2.40854        0.19283
B          4.05679       -2.46882       -0.15243
B         -0.17320       -4.74302       -0.55088
B         -3.03383       -3.23998       -0.42351
B         -3.06573       -1.62258        0.15412
B         -4.52593       -0.80976       -0.34108
B         -0.25486        1.75069        0.85269
B         -1.63727        2.44691        0.22739
B         -3.09186        1.63817        0.17733
B         -4.53890        0.80919       -0.32955
B         -4.38310        2.36984       -0.56319
B         -3.08595        3.26393       -0.37721
B         -1.66581        4.13027       -0.35243
B         -0.26687        3.35883        0.33472
B         -0.24979        4.81428       -0.48285
B          2.59718        3.40242        0.03578
B          1.17994        4.21495       -0.20511
B          2.62691        1.76194        0.40395
B          4.01615        2.60271       -0.11633
B          4.09759        0.90840        0.32829
B          1.18976        2.57358        0.56825
B          1.23037       -2.49473        0.53217
B         -3.16247       -0.09570        0.56139
B          1.17897        0.84796        0.69892
B         -4.34516       -2.36423       -0.59689
B          5.37601       -1.64994       -0.64683
B          5.35939       -0.02056       -0.40131
B          5.34827        1.81220       -0.62219
B          6.52293        0.87106       -1.22775
B          6.53538       -0.68157       -1.23880
B         -1.69611        0.83759        0.77607
B          0.11638       -2.00446        1.13647
B         -0.22722       -1.69923        0.82813
B         -5.85879       -1.66376       -0.81044
B         -6.06738        0.04829       -0.86383
B         -5.88345        1.77979       -0.85652
B         -0.97855        0.54324        1.60295
