45
isomer_0354.log	Energy: -113534.4454741
B          2.58159        1.40240       -0.63120
B          2.29493        2.75989        0.65274
B          0.96745        3.57472        0.70533
B         -0.41985        3.09544       -0.21177
B          1.16664        0.87693       -1.42988
B         -1.83686        0.72617       -1.07435
B         -1.83207        3.77667        0.53663
B          4.28466        1.24377       -0.65259
B         -1.87547        2.36735       -0.56557
B          3.58944        1.90683        0.70484
B         -0.45489        4.20566        0.94289
B         -3.22428        2.99206        0.25731
B         -3.26248        1.47284       -0.39114
B         -4.67900        0.47824       -0.20163
B         -0.33682       -1.78136       -1.66614
B         -1.29558       -2.36458       -0.35416
B         -2.90861       -1.90238       -0.36349
B         -4.32133       -1.11285        0.17101
B         -3.92158       -2.63806        0.84832
B         -2.40368       -3.17923        0.54136
B         -0.83476       -3.47057        0.78681
B          0.45558       -2.86760       -0.31733
B          0.53704       -3.20882        1.33257
B          1.67602       -1.15398        1.03572
B          1.90453       -2.67897        1.14227
B          1.74573       -0.11630       -0.10188
B          3.23789       -1.80624        0.53574
B          3.40664        0.01979        0.40263
B          2.07012       -2.01105       -0.59854
B          1.09576        2.25947       -0.36318
B         -3.31811       -0.24431       -0.88348
B          1.12234       -0.78511       -1.60275
B         -4.52990        2.12088        0.52613
B          4.80335        0.81081        1.08919
B          5.29681        0.10235       -0.52504
B          4.66899       -1.10310        0.62814
B          6.24910       -0.90552        0.24404
B          6.10593        0.05271        1.25951
B         -1.76866       -0.95208       -1.33118
B         -0.39236        0.00891       -1.51554
B         -0.42234        1.72575       -1.13066
B         -5.53794        1.09415        1.01041
B         -5.58114       -0.42956        1.11391
B         -5.18422       -1.91354        1.26181
B          1.08139       -2.44860       -1.81776
