45
isomer_3540.log	Energy: -112497.9049084
B          2.60471       -1.67228        0.36337
B          2.60146       -3.30613       -0.03427
B          1.19711       -4.13990       -0.27808
B         -0.26022       -3.32016        0.28924
B          1.14309       -0.79031        0.68695
B         -1.73094       -0.83376        0.78820
B         -1.65088       -4.10448       -0.40014
B          4.05901       -0.79085        0.29098
B         -1.64776       -2.43160        0.20991
B          4.00436       -2.47808       -0.18364
B         -0.22390       -4.76010       -0.55474
B         -3.08661       -3.26387       -0.39736
B         -3.11711       -1.64874        0.18666
B         -4.58324       -0.83728       -0.29302
B         -0.30775        1.72807        0.87410
B         -1.69694        2.42359        0.26322
B         -3.15014        1.61184        0.22246
B         -4.59963        0.78158       -0.27524
B         -4.44922        2.34344       -0.50427
B         -3.15249        3.23969       -0.32594
B         -1.73408        4.10906       -0.30995
B         -0.32767        3.33812        0.36236
B         -0.32071        4.79668       -0.44980
B          2.53363        3.38917        0.03925
B          1.11263        4.19947       -0.18650
B          2.57007        1.74738        0.40092
B          3.95300        2.59318       -0.12795
B          4.04190        0.89738        0.30952
B          1.13260        2.55522        0.58052
B          1.18394       -2.51282        0.52486
B         -3.21370       -0.12362        0.60053
B          1.12668        0.82910        0.70473
B         -4.40127       -2.39037       -0.55626
B          5.31755       -1.65443       -0.68613
B          5.29947       -0.02603       -0.43430
B          5.28248        1.80752       -0.64811
B          6.45399        0.87128       -1.26721
B          6.46972       -0.68127       -1.28426
B         -1.74761        0.81208        0.80627
B          1.27830       -1.12779        2.15176
B         -0.27281       -1.72167        0.83622
B         -5.91818       -1.69244       -0.75427
B         -6.13094        0.01933       -0.79939
B         -5.95073        1.75119       -0.78708
B          0.30883        0.46361        0.04586
