45
isomer_3541.log	Energy: -113624.3722321
B         -2.97477       -1.49507       -1.40128
B         -2.99788       -2.69008        0.10512
B         -1.72673       -3.70370        0.10755
B         -0.28460       -3.20082       -0.65036
B         -1.47930       -0.44715       -1.03143
B          1.48599       -0.85636       -0.85117
B          1.03438       -4.12064        0.20151
B         -4.03774       -0.25698       -0.97631
B          1.30738       -2.56648       -0.48188
B         -4.25083       -1.69892       -0.23873
B         -0.44613       -4.46460        0.35124
B          2.48535       -3.48717        0.21018
B          2.83373       -1.91555       -0.31550
B          4.32857       -1.26702       -0.01820
B          0.43355        1.89922       -1.23262
B          1.88266        2.46255       -0.59734
B          3.15356        1.48203       -0.19588
B          4.44747        0.41519        0.24092
B          4.45843        2.09151        0.73371
B          3.23201        3.03525        0.30620
B          1.93375        4.01076        0.31357
B          0.52116        3.41904       -0.49263
B          0.59313        4.70340        0.47939
B         -2.27295        3.46267        0.13880
B         -0.83964        4.20624        0.22410
B         -2.45550        1.93050       -0.61777
B         -3.58938        2.59558        0.41750
B         -3.96198        1.21905       -0.38068
B         -1.05141        2.77093       -0.74596
B         -1.60217       -2.21568       -0.97057
B          3.10100       -0.22997       -0.63470
B         -1.13553        1.12663       -1.26421
B          3.91524       -2.80261        0.67999
B         -3.49292       -1.66277        1.38790
B         -4.29155       -0.17648        0.73918
B         -4.44905        1.55765        1.25247
B         -4.86494        0.55126        2.25660
B         -4.26302       -0.74257        2.36179
B          1.76514        0.79284       -1.00465
B         -2.61187       -0.83043        0.18990
B          0.01154       -1.61161       -1.09534
B          5.02256       -1.96669        1.26444
B          5.49087       -0.48680        1.22843
B          5.49991        1.05096        1.23209
B          0.14254        0.11287       -1.22539
