45
isomer_3545.log	Energy: -113486.2055380
B          0.88196        1.85314        0.16440
B          0.32823        3.38230        0.54117
B         -1.08653        3.94291        0.01521
B         -1.87260        3.08483       -1.28480
B          1.79353        0.58860       -0.49074
B         -1.80761        0.31835       -0.94725
B         -3.53550        3.17198       -0.59100
B          2.54190        1.79766        0.47526
B         -2.88823        1.68649       -1.23096
B          1.73709        3.04734        1.22727
B         -2.51456        4.24050       -0.33331
B         -4.37248        1.82487       -0.45619
B         -3.51647        0.43279       -0.35617
B         -4.24500       -0.97586        0.20297
B          0.05957       -1.75789       -1.77456
B          0.02030       -2.35531       -0.02062
B         -1.53252       -2.17635        0.58248
B         -3.18301       -1.98170        1.02869
B         -2.20738       -3.22525        1.71821
B         -0.68576       -3.42365        1.12816
B          0.86135       -3.52593        0.78987
B          1.53979       -2.39690       -0.90583
B          2.20413       -3.13515        0.46128
B          4.17543       -1.72833       -1.58740
B          3.29470       -2.47344       -0.44446
B          2.72463       -0.83216       -0.77111
B          4.46916       -0.94497       -0.29440
B          3.51322        0.46140        0.01960
B          2.76408       -1.91814       -2.25598
B         -0.36629        2.48223       -0.63785
B         -2.61759       -1.01475       -0.23535
B          1.29161       -0.55902       -1.57590
B         -5.07762        0.56828        0.32195
B          3.12877        2.79370        1.85566
B          3.94393        1.37421        1.30695
B          4.95894        0.08333        0.88161
B          5.37447        1.17450        1.96203
B          4.56552        2.38624        2.38232
B         -0.90925       -1.04381       -0.69057
B          0.01255        0.61644       -0.98321
B         -1.25059        1.62674       -1.75277
B         -5.39133       -0.57625        1.25753
B         -4.71149       -1.89964        1.75078
B         -3.67879       -2.97699        2.15959
B          1.26574       -2.01733       -2.61256
