45
isomer_3546.log	Energy: -112528.1947070
B          2.61109       -1.60676        0.37382
B          2.61917       -3.23832       -0.03308
B          1.22070       -4.07992       -0.28363
B         -0.24280       -3.27303        0.28622
B          1.14323       -0.73629        0.70027
B         -1.73058       -0.79924        0.79714
B         -1.62728       -4.06257       -0.40960
B          4.05964       -0.71537        0.30853
B         -1.63605       -2.39319        0.20992
B          4.01680       -2.40021       -0.17572
B         -0.19580       -4.70788       -0.56585
B         -3.06853       -3.23147       -0.40412
B         -3.11050       -1.61991        0.18898
B         -4.58127       -0.81542       -0.28820
B         -0.32445        1.77138        0.89960
B         -1.71733        2.46119        0.29067
B         -3.16509        1.64013        0.24321
B         -4.60837        0.80317       -0.26128
B         -4.46795        2.36726       -0.48124
B         -3.17740        3.27101       -0.29596
B         -1.76478        4.14960       -0.27300
B         -0.35426        3.38414        0.39696
B         -0.35578        4.84730       -0.40691
B          2.50709        3.45587        0.07827
B          1.08110        4.25806       -0.14494
B          2.55385        1.81233        0.43069
B          3.93191        2.67021       -0.09138
B          4.03138        0.97258        0.33660
B          1.11083        2.60965        0.61278
B          1.19567       -2.45755        0.52850
B         -3.21773       -0.09784        0.61135
B          1.11613        0.88285        0.72721
B         -4.38870       -2.36576       -0.55997
B          5.32522       -1.56508       -0.67165
B          5.29606        0.06171       -0.41062
B          5.26727        1.89629       -0.61407
B          6.44581        0.97131       -1.23677
B          6.47180       -0.58098       -1.26259
B         -1.75813        0.84633        0.82451
B          1.19440       -2.09899        1.93886
B         -0.26670       -1.67778        0.84223
B         -5.90990       -1.67672       -0.75622
B         -6.13388        0.03384       -0.79194
B         -5.96512        1.76675       -0.76956
B          0.56923       -0.73268       -0.43803
