45
isomer_3547.log	Energy: -113402.9127825
B          2.52904        1.79065       -0.61894
B          2.46210        3.42010       -0.08429
B          1.07067        4.17189        0.09767
B         -0.36399        3.42002       -0.47359
B          1.18281        0.97521       -1.16661
B         -1.83872        0.94193       -0.96045
B         -1.75314        4.10861        0.35840
B          3.89449        1.00228       -0.12835
B         -1.83452        2.58210       -0.39283
B          3.84804        2.63097        0.11377
B         -0.32460        4.70673        0.46039
B         -3.12542        3.27881        0.38639
B         -3.17358        1.70237       -0.16262
B         -4.51728        0.77225        0.31906
B         -0.26802       -1.54475       -0.91104
B         -1.65286       -2.49668       -0.51704
B         -3.09489       -1.69537       -0.21563
B         -4.59861       -0.88389       -0.01113
B         -4.28603       -2.50514        0.66110
B         -2.93032       -3.28426        0.25491
B         -1.49817       -4.04106        0.19372
B         -0.16368       -3.26367       -0.59932
B         -0.04101       -4.51634        0.47980
B          2.51426       -3.12609        0.18611
B          1.38947       -4.08591        0.78236
B          2.57768       -1.41706       -0.42745
B          3.83369       -2.21553        0.38921
B          3.91651       -0.66465       -0.09041
B          1.30774       -2.33964       -0.96126
B          1.16593        2.66144       -0.78251
B         -3.27452        0.01522       -0.58234
B          1.27640       -0.67371       -1.13207
B         -4.47501        2.41893        0.80073
B          5.13229        1.88735        0.68410
B          5.27300        0.20637        0.36694
B          5.18524       -1.45188        0.83532
B          6.23714       -0.52348        1.47574
B          6.15421        0.96977        1.47645
B         -1.70598       -0.77846       -0.74312
B          1.33677       -3.94995       -0.78213
B         -0.37984        1.83090       -1.12381
B         -5.58756        1.49738        1.23469
B         -5.72056       -0.08681        1.17191
B         -5.40220       -1.58911        1.17839
B         -0.27697        0.14215       -1.04021
