45
isomer_3548.log	Energy: -113451.9890876
B         -2.67823       -1.51696       -0.53553
B         -2.66414       -3.26331       -0.07225
B         -1.33034       -4.07252       -0.18508
B          0.15666       -3.30106       -0.82844
B         -1.25751       -0.68306       -0.81456
B          1.64968       -0.90724       -0.91163
B          1.41725       -4.11891        0.18208
B         -3.99892       -0.76648       -0.21540
B          1.29610       -2.35791        0.12721
B         -3.93826       -2.36730        0.17756
B          0.05142       -4.69260        0.03083
B          2.74294       -3.30234        0.47117
B          2.93750       -1.82192       -0.13269
B          4.30959       -0.91891        0.38259
B          0.36065        1.80678       -1.05338
B          1.83982        2.54005       -0.61638
B          3.16879        1.65071       -0.29717
B          4.53995        0.69399        0.06226
B          4.46397        2.37427        0.56992
B          3.15760        3.25959        0.15177
B          1.81355        4.12686        0.18178
B          0.38092        3.39838       -0.49348
B          0.40756        4.72142        0.37936
B         -2.41916        3.43226        0.05004
B         -1.03951        4.17485        0.13632
B         -2.51757        1.73050       -0.68274
B         -3.67886        2.57993        0.26960
B         -3.89897        1.00528       -0.18171
B         -1.11346        2.54942       -0.50691
B         -1.28170       -2.38477       -0.49931
B          3.17162       -0.10746       -0.55776
B         -1.18463        0.98345       -1.12643
B          4.10894       -2.55278        0.90107
B         -5.21801       -1.50428        0.76496
B         -5.18092        0.16623        0.42185
B         -4.99411        1.78218        0.84402
B         -6.04702        0.90423        1.59520
B         -6.16375       -0.58435        1.52604
B          1.74141        0.85326       -0.85710
B          0.24226        0.00000       -1.10726
B          0.24620       -1.78119       -1.47950
B          5.30309       -1.68963        1.34025
B          5.57401       -0.16285        1.25272
B          5.46692        1.40037        1.14791
B          0.05667       -1.27617        0.18822
