45
isomer_3549.log	Energy: -113296.9666647
B          2.41710        1.96644       -0.47197
B          2.30503        3.65306       -0.03409
B          0.86116        4.44950        0.13270
B         -0.53922        3.55690       -0.42109
B          1.07391        1.29923       -0.85994
B         -1.73113        0.82967       -0.90614
B         -1.99265        4.17410        0.30503
B          3.76834        1.09461       -0.30450
B         -1.85133        2.50102       -0.34053
B          3.65187        2.76148        0.14311
B         -0.65803        4.90208        0.43798
B         -3.24336        3.18790        0.30345
B         -3.15949        1.62616       -0.24071
B         -4.45453        0.68343        0.25645
B         -0.22463       -1.82864       -0.99951
B         -1.57536       -2.48388       -0.34603
B         -2.94828       -1.74994       -0.26788
B         -4.33625       -0.94827        0.22833
B         -4.26844       -2.60350        0.58562
B         -2.86347       -3.36243        0.28753
B         -1.54322       -4.18419        0.29377
B         -0.14847       -3.43043       -0.43032
B         -0.07896       -4.74975        0.41282
B          2.67591       -3.41896       -0.07557
B          1.36421       -4.25361        0.14943
B          2.62390       -1.68317       -0.52087
B          3.93738       -2.38119        0.05814
B          3.87721       -0.73443       -0.33805
B          1.25135       -2.67643       -0.93388
B          0.95410        2.94429       -0.65193
B         -3.13525       -0.01822       -0.62146
B          1.27713       -1.09958       -0.84949
B         -4.56916        2.35088        0.60100
B          4.91045        1.93191        0.67189
B          4.98264        0.27275        0.40979
B          5.12427       -1.42403        0.61806
B          6.15882       -0.43685        1.30919
B          6.06140        1.08922        1.32619
B         -1.64001       -0.88191       -0.90606
B          2.01489        0.26692       -0.25499
B         -0.47343        1.92091       -0.99578
B         -5.76893        1.41240        0.86951
B         -5.80100       -0.18344        0.88009
B         -5.53378       -1.76174        0.88572
B          1.24731       -2.58029        0.60499
