45
isomer_0355.log	Energy: -112842.0735522
B         -2.79132       -1.65310       -0.37235
B         -2.61900       -3.40465       -0.00183
B         -1.10029       -4.26255        0.23815
B          0.31460       -3.43958       -0.33184
B         -1.10121       -0.74542       -0.76254
B          1.77010       -0.84093       -0.84652
B          1.69816       -4.15141        0.37019
B         -4.10154       -0.77035       -0.28419
B          1.69807       -2.49726       -0.25729
B         -4.05817       -2.46905        0.17669
B          0.31806       -4.79767        0.51701
B          3.09398       -3.29028        0.38393
B          3.13883       -1.67767       -0.19516
B          4.57581       -0.81280        0.30929
B          0.37560        1.84142       -0.90754
B          1.75424        2.49444       -0.29183
B          3.17209        1.67356       -0.23370
B          4.58337        0.83281        0.27996
B          4.47407        2.41240        0.53764
B          3.14268        3.29132        0.31731
B          1.74358        4.16094        0.28806
B          0.33761        3.43047       -0.38920
B          0.33665        4.80435        0.40568
B         -2.53740        3.45429       -0.07867
B         -1.10561        4.26679        0.14183
B         -2.62362        1.81809       -0.45314
B         -3.95849        2.60917        0.10534
B         -4.06886        0.96166       -0.32036
B         -1.16078        2.67326       -0.61294
B         -1.11143       -2.71308       -0.55893
B          3.24823       -0.08234       -0.60672
B         -1.22153        0.96228       -0.76678
B          4.45675       -2.40829        0.59463
B         -5.31123       -1.60423        0.71790
B         -5.27529        0.04568        0.45104
B         -5.23428        1.82434        0.63856
B         -6.34477        0.91630        1.27156
B         -6.40526       -0.59942        1.31845
B          1.79141        0.86878       -0.84824
B         -1.69849       -1.96197       -1.27507
B          0.33308       -1.75753       -0.95623
B          5.83335       -1.59698        0.78969
B          6.00771        0.05409        0.81790
B          5.84535        1.66965        0.80284
B         -0.21482        0.47048       -0.12258
