45
isomer_3550.log	Energy: -113347.5969481
B         -2.42033        1.73148        0.49372
B         -2.38006        3.42339       -0.04979
B         -1.01149        4.15770       -0.21099
B          0.43566        3.38016        0.41397
B         -1.06110        0.88283        0.81457
B          1.82623        0.84207        0.84401
B          1.83868        4.07468       -0.37204
B         -3.84583        1.03337        0.14724
B          1.85396        2.46861        0.32246
B         -3.73018        2.60979       -0.16865
B          0.42466        4.67253       -0.51852
B          3.20364        3.22877       -0.30931
B          3.26340        1.64861        0.27651
B          4.66827        0.71188       -0.01496
B          0.40076       -1.68643        1.40460
B          1.61035       -2.47604        0.41689
B          3.08324       -1.75395        0.29579
B          4.50069       -0.94337       -0.13713
B          4.28768       -2.54367       -0.72887
B          2.84165       -3.25452       -0.34476
B          1.36191       -3.86303       -0.52046
B         -0.04940       -3.17707        0.33620
B         -0.03068       -4.30203       -0.83381
B         -2.87473       -3.27589       -0.43666
B         -1.45722       -3.87468       -0.64636
B         -2.57776       -1.46007        0.30825
B         -3.99226       -2.26206       -0.30657
B         -3.98632       -0.70971        0.12901
B         -1.82581       -2.84099        0.68821
B         -1.06177        2.58931        0.61930
B          3.37406       -0.07295        0.74621
B         -1.14586       -0.80463        0.69581
B          4.50839        2.33140       -0.68002
B         -5.12968        1.91895       -0.62093
B         -5.22098        0.27241       -0.29304
B         -5.36106       -1.36137       -0.63935
B         -6.41052       -0.40310       -1.21317
B         -6.29049        1.09376       -1.22425
B          1.79213       -0.82768        1.01103
B         -0.83481       -2.43010        1.75097
B          0.42992        1.79868        0.98982
B          5.54663        1.35329       -1.19651
B          5.69205       -0.17825       -1.18492
B          5.43330       -1.71789       -1.20645
B          0.32108       -0.00417        1.15298
