45
isomer_3553.log	Energy: -113463.5544128
B          2.46524        1.82426       -0.60736
B          2.40080        3.42256       -0.14639
B          1.00947        4.19294        0.10874
B         -0.43195        3.38566       -0.38691
B          0.99148        0.90614       -0.99390
B         -1.79883        0.82386       -0.78790
B         -1.77344        4.09694        0.40147
B          3.94710        1.01251       -0.46069
B         -1.84189        2.50106       -0.33071
B          3.78796        2.62488        0.07227
B         -0.38522        4.73851        0.46463
B         -3.17118        3.21711        0.40279
B         -3.21437        1.65199       -0.11112
B         -4.65767        0.76996        0.18110
B         -0.39753       -1.60074       -0.88906
B         -1.83200       -2.48297       -0.52653
B         -3.31462       -1.71650       -0.42315
B         -4.72358       -0.90618       -0.12681
B         -4.51099       -2.50228        0.50820
B         -3.14263       -3.31066        0.08487
B         -1.75977       -4.09231        0.15554
B         -0.33384       -3.30450       -0.51920
B         -0.33888       -4.62460        0.40298
B          2.44630       -3.10768        0.27833
B          1.03340       -3.98202        0.21185
B          2.51460       -1.62443       -0.61648
B          3.58816       -2.42533        1.08026
B          3.98253       -0.71911       -0.51122
B          1.02746       -2.39125       -0.50711
B          1.02994        2.63931       -0.73797
B         -3.31463        0.00885       -0.62174
B          1.04167       -0.73527       -0.99650
B         -4.52670        2.40206        0.74762
B          5.02417        1.83022        0.68091
B          4.99992        0.13422        0.52078
B          4.93185       -1.58415        0.88662
B          6.05130       -0.60783        1.47581
B          6.08266        0.89197        1.40241
B         -1.80691       -0.77658       -0.75745
B          3.97985       -2.33624       -0.44479
B         -0.42956        1.76261       -0.97887
B         -5.70277        1.48284        1.14261
B         -5.85498       -0.05342        1.07944
B         -5.54542       -1.56628        1.10470
B          2.47352        0.12988       -0.91204
