45
isomer_3555.log	Energy: -113455.8879922
B         -2.87189        0.94515        0.34858
B         -2.84968        2.63765       -0.63912
B         -1.56648        3.47828       -0.77090
B         -0.12580        3.04309        0.04571
B         -1.33130        0.36236        0.60338
B          1.63839        0.81968        0.74903
B          1.23383        3.95629       -0.58451
B         -4.43561        0.92887        0.81632
B          1.46352        2.42727        0.17275
B         -4.18098        2.04021       -0.30149
B         -0.20741        4.24519       -0.97314
B          2.74032        3.37229       -0.29935
B          2.97869        1.88636        0.44295
B          4.53575        1.17413        0.26109
B          0.48513       -2.23737        1.19084
B          1.92788       -2.46793        0.28664
B          3.24126       -1.51322        0.30614
B          4.53378       -0.48035       -0.08013
B          4.69759       -2.08412       -0.57035
B          3.31062       -2.94998       -0.49807
B          1.93648       -3.61245       -1.01143
B          0.49939       -3.35147       -0.03402
B          0.53851       -3.90683       -1.52109
B         -2.21800       -2.69015       -0.76395
B         -0.89032       -3.43164       -1.15143
B         -2.23180       -1.18633        0.46751
B         -3.56413       -2.05867       -0.39965
B         -3.84469       -0.62826        0.36386
B         -0.97191       -2.40236        0.17645
B         -1.47679        1.88245       -0.08121
B          3.20872        0.16186        0.74837
B         -0.87682       -1.15636        1.39989
B          4.22457        2.76235       -0.40707
B         -5.72520        1.43167       -0.13988
B         -5.52870       -0.19080        0.29658
B         -5.06114       -1.63963       -0.45710
B         -6.39120       -0.96388       -0.85961
B         -6.75577        0.45315       -0.66254
B          1.83633       -0.88500        1.25231
B          0.61449       -1.14894        2.35860
B          0.06193        1.48269        0.61184
B          5.47812        1.97090       -0.75160
B          5.84763        0.47025       -0.71517
B          5.82447       -1.10111       -0.78319
B          0.24819        0.15470        1.55715
