45
isomer_3556.log	Energy: -113532.9929854
B         -2.60194       -1.46524       -0.44237
B         -2.85252       -3.09088       -0.57293
B         -1.69616       -3.92606        0.06309
B         -0.05765       -3.24722       -0.39471
B         -1.04098       -0.81369       -0.52642
B          1.69768       -0.96998       -1.03003
B          1.05740       -3.71131        0.91316
B         -3.99105       -0.45893       -0.47409
B          1.45640       -2.48092       -0.19589
B         -4.17939       -2.10272       -0.28115
B         -0.50362       -3.94291        1.02382
B          2.54685       -3.20778        0.80162
B          2.90841       -1.80847       -0.10331
B          4.42496       -1.11229        0.20139
B          0.59102        1.60725       -0.77698
B          2.09348        2.29809       -0.58393
B          3.49118        1.42756       -0.57647
B          4.83954        0.40506       -0.41433
B          4.84690        2.12730        0.15696
B          3.56616        3.02579       -0.10912
B          2.27300        3.94280        0.16318
B          0.75863        3.26018       -0.26485
B          0.94084        4.61130        0.53792
B         -2.03691        3.44110        0.42077
B         -0.53422        4.11589        0.47440
B         -2.22839        1.88310       -0.15207
B         -3.51593        2.80730        0.52041
B         -3.78868        1.27370       -0.19480
B         -0.76304        2.55296       -0.21689
B         -1.35112       -2.50420       -1.30372
B          3.33836       -0.29077       -0.83748
B         -2.44727        0.29985       -0.70446
B          4.05799       -2.56770        1.00931
B         -5.39213       -1.22623        0.22181
B         -5.17111        0.48778        0.28463
B         -4.93999        2.12038        0.77436
B         -6.24756        1.25864        1.14537
B         -6.44873       -0.22253        0.89929
B          1.87705        0.63508       -0.87470
B         -0.90323        0.85511       -0.64376
B          0.20116       -1.75448       -1.17798
B          5.38762       -1.89859        1.20382
B          5.84658       -0.42597        0.87412
B          5.81674        1.07531        0.68477
B         -1.32631       -2.28269        0.47824
