45
isomer_3558.log	Energy: -113675.8863336
B         -2.50982        1.75938        0.48894
B         -2.42855        3.33416       -0.04007
B         -1.04898        4.15722       -0.12236
B          0.34983        3.38535        0.51567
B         -1.13038        0.84872        1.04237
B          1.78519        0.83062        0.91005
B          1.74630        4.14461       -0.24651
B         -3.95680        0.90954        0.21577
B          1.80083        2.53289        0.48740
B         -3.81025        2.53621       -0.29306
B          0.33985        4.74583       -0.35191
B          3.09041        3.28116       -0.26686
B          3.17256        1.68108        0.25968
B          4.53194        0.79922       -0.23683
B          0.31343       -1.83081        1.08804
B          1.72552       -2.55082        0.43184
B          3.12986       -1.73302        0.22190
B          4.54683       -0.89262       -0.14622
B          4.32783       -2.49887       -0.76975
B          3.00994       -3.33992       -0.27778
B          1.64350       -4.16954       -0.25812
B          0.27012       -3.40259        0.53785
B          0.22158       -4.74792       -0.35374
B         -2.51244       -3.30398       -0.03727
B         -1.15517       -4.14910       -0.10972
B         -2.56252       -1.73095        0.52992
B         -3.86902       -2.48574       -0.27583
B         -3.98395       -0.84629        0.22504
B         -1.18498       -2.57776        0.78858
B         -1.12019        2.58992        0.76569
B          3.29352       -0.01551        0.60902
B         -1.16959       -0.85057        1.06840
B          4.40564        2.44520       -0.75028
B         -5.06103        1.73736       -0.86468
B         -5.19541        0.04309       -0.52294
B         -5.10382       -1.65298       -0.84549
B         -6.10394       -0.70837       -1.60619
B         -6.08422        0.81231       -1.61312
B          1.71842       -0.84311        0.78942
B         -2.60987        0.01571        0.74613
B          0.36831        1.82557        1.11710
B          5.47205        1.51949       -1.30220
B          5.61998       -0.03252       -1.30466
B          5.37467       -1.56896       -1.33764
B          0.34284       -0.00269        1.09440
