45
isomer_0356.log	Energy: -112282.1362474
B          2.65487        1.80197       -0.41095
B          2.63419        3.43887       -0.02714
B          1.22236        4.27333        0.19833
B         -0.23093        3.44451       -0.36210
B          1.21935        0.97684       -0.72561
B         -1.72518        0.91050       -0.82706
B         -1.61890        4.20631        0.33234
B          4.08529        0.88525       -0.32231
B         -1.62789        2.53272       -0.26602
B          4.02627        2.57750        0.13342
B         -0.20071        4.86036        0.46861
B         -3.05207        3.35283        0.35466
B         -3.10118        1.73679       -0.20811
B         -4.55421        0.91737        0.30544
B         -0.26788       -1.66070       -0.90324
B         -1.72495       -2.40050       -0.23339
B         -3.14918       -1.57182       -0.18602
B         -4.56378       -0.70724        0.31599
B         -4.43613       -2.28027        0.58676
B         -3.13464       -3.20299        0.39610
B         -1.71054       -4.13478        0.40993
B         -0.30569       -3.39206       -0.29370
B         -0.29275       -4.81360        0.55230
B          2.57497       -3.38832        0.00464
B          1.15720       -4.24743        0.27650
B          2.62397       -1.73328       -0.39959
B          3.98689       -2.52948        0.16762
B          4.07177       -0.85554       -0.30647
B          1.20775       -2.57612       -0.56965
B          1.23328        2.65877       -0.58551
B         -3.21396        0.18483       -0.59834
B          1.18722       -0.80105       -0.73246
B         -4.38643        2.48876        0.55529
B          5.31433        1.75099        0.65120
B          5.29726        0.10658        0.42678
B          5.27932       -1.70859        0.67790
B          6.41944       -0.75053        1.28373
B          6.44621        0.77826        1.27729
B         -1.75765       -0.75460       -0.82055
B          0.69536        0.16291       -1.25796
B         -0.25023        1.85183       -0.90496
B         -5.85023        1.74677        0.77998
B         -6.05069        0.08287        0.84852
B         -5.88200       -1.61129        0.86427
B         -0.24948       -2.60752       -0.92648
