45
isomer_3562.log	Energy: -113531.4409292
B         -2.54461        1.69718        0.57163
B         -2.67541        3.28643        0.25878
B         -1.36852        4.26097        0.16669
B          0.16590        3.65574        0.83803
B         -1.01712        1.01275        0.99386
B          1.38975        0.87406        0.80160
B          1.39949        4.27296       -0.21399
B         -3.73509        0.63646        0.06568
B          1.55752        2.66577        0.57311
B         -3.95266        2.30477       -0.16681
B         -0.02425        4.85608       -0.21159
B          2.73867        3.41512       -0.37616
B          2.81694        1.83234       -0.00756
B          4.13226        0.96939       -0.62561
B          0.41533       -1.89326        1.23385
B          1.87709       -2.46740        0.69909
B          3.12195       -1.57352        0.17899
B          4.43731       -0.62903       -0.37055
B          4.51480       -2.31910       -0.63489
B          3.21808       -3.20075       -0.05367
B          1.98687       -4.17024        0.00424
B          0.52705       -3.49550        0.73622
B          0.63868       -4.85266       -0.16175
B         -2.18800       -3.47951       -0.06415
B         -0.80755       -4.32404        0.02436
B         -2.36815       -1.89973        0.48001
B         -3.51313       -2.65739       -0.51046
B         -3.59560       -1.01394       -0.19668
B         -1.03659       -2.86676        0.97146
B         -1.30368        2.75645        0.97113
B          3.00420        0.14744        0.22114
B         -2.24844       -0.07501        0.64855
B          4.10582        2.64630       -0.94196
B         -5.11786        1.49006       -0.78213
B         -4.96585       -0.21951       -0.76033
B         -4.73710       -1.86821       -1.20213
B         -5.87376       -0.96120       -1.84689
B         -6.05468        0.52559       -1.64406
B          1.61796       -0.73363        0.72095
B         -1.19298       -1.14340        1.37534
B          0.24526        2.05105        1.37652
B          5.25506        1.78322       -1.41654
B          5.56795        0.23017       -1.38310
B          5.53132       -1.32261       -1.23475
B          0.05579       -0.20393        0.89455
