45
isomer_3563.log	Energy: -113440.2049217
B         -2.61936       -1.58061       -0.54740
B         -2.65604       -3.26445       -0.13451
B         -1.32353       -4.07566        0.03238
B          0.17222       -3.29489       -0.49243
B         -1.19221       -0.78287       -0.85749
B          1.65562       -0.86362       -0.93695
B          1.43982       -4.07321        0.44671
B         -3.95829       -0.76258       -0.24696
B          1.41760       -2.31494        0.02268
B         -3.94417       -2.38184        0.07019
B          0.04735       -4.66089        0.38475
B          2.80068       -3.23265        0.54644
B          2.98772       -1.73162       -0.10788
B          4.44958       -0.90692        0.16155
B          0.32548        1.80030       -1.01834
B          1.75810        2.51124       -0.45456
B          3.16496        1.68030       -0.35676
B          4.54387        0.74542        0.05028
B          4.45290        2.39003        0.54961
B          3.09678        3.25585        0.21634
B          1.74888        4.09734        0.28576
B          0.31737        3.39083       -0.43953
B          0.32980        4.67567        0.48702
B         -2.48243        3.41634        0.11934
B         -1.10742        4.15169        0.23224
B         -2.54884        1.75562       -0.56041
B         -3.78989        2.58080        0.28057
B         -3.92345        0.99458       -0.18213
B         -1.15373        2.55589       -0.53496
B         -1.24964       -2.48371       -0.78398
B          3.21115       -0.07070       -0.64348
B         -1.21656        0.90483       -0.86956
B          4.20210       -2.50018        0.82244
B         -5.25181       -1.53833        0.63082
B         -5.15370        0.12568        0.40474
B         -5.12070        1.76451        0.78015
B         -6.19089        0.85321        1.44481
B         -6.26643       -0.64340        1.35006
B          1.75865        0.88047       -0.98275
B          0.24902        0.02273       -1.17063
B          0.27276       -1.82894       -1.50512
B          5.41716       -1.62553        1.20259
B          5.67167       -0.10797        1.10476
B          5.54523        1.46777        1.04555
B          0.11262       -1.29563        0.15405
