45
isomer_3564.log	Energy: -112965.8167415
B         -2.63706       -1.64044       -0.48843
B         -2.60680       -3.28476       -0.11241
B         -1.20977       -4.11403        0.12749
B          0.24274       -3.30722       -0.41038
B         -1.21338       -0.74513       -0.79678
B          1.71191       -0.81005       -0.87472
B          1.63012       -4.09065        0.28344
B         -4.05624       -0.78622       -0.40002
B          1.63576       -2.42815       -0.30329
B         -3.98817       -2.45566        0.04295
B          0.21266       -4.71118        0.40478
B          3.06174       -3.23875        0.30673
B          3.10718       -1.61610       -0.25699
B          4.55335       -0.78423        0.24045
B          0.22089        1.78012       -0.91117
B          1.63715        2.48971       -0.26936
B          3.10513        1.67082       -0.23813
B          4.54722        0.83122        0.24701
B          4.40697        2.40181        0.52873
B          3.05549        3.27776        0.34707
B          1.62573        4.13720        0.34002
B          0.24292        3.37609       -0.35862
B          0.20979        4.76817        0.46979
B         -2.59740        3.37253       -0.05389
B         -1.21454        4.18477        0.19118
B         -2.64181        1.73581       -0.45597
B         -4.00137        2.53766        0.09061
B         -4.06210        0.89875       -0.38481
B         -1.22756        2.57378       -0.60810
B         -1.22610       -2.49033       -0.65785
B          3.20504       -0.05677       -0.64734
B         -1.21495        0.84601       -0.77546
B          4.41759       -2.37265        0.50234
B         -5.28383       -1.67488        0.56190
B         -5.28293       -0.03369        0.33753
B         -5.28238        1.74713        0.57976
B         -6.41124        0.79515        1.17623
B         -6.42823       -0.71746        1.17568
B          1.71307        0.89248       -0.85963
B         -0.32048       -1.49240        1.32331
B          0.22384       -1.69418       -0.94898
B          5.82856       -1.58924        0.69985
B          6.01097        0.06287        0.76328
B          5.81757        1.71178        0.77533
B          0.48295        0.04257       -0.70311
