45
isomer_3565.log	Energy: -112651.0245857
B         -2.56711        1.72683        0.41048
B         -2.53694        3.36947        0.04478
B         -1.12582        4.19421       -0.17901
B          0.31811        3.35252        0.36734
B         -1.12446        0.83257        0.72141
B          1.75762        0.82863        0.81922
B          1.71536        4.12840       -0.30228
B         -4.01703        0.86288        0.31980
B          1.70120        2.44854        0.27071
B         -3.93941        2.54958       -0.12203
B          0.29807        4.78915       -0.44081
B          3.13703        3.26957       -0.31898
B          3.15134        1.64505        0.23110
B          4.60445        0.81708       -0.26242
B          0.30416       -1.72424        0.85607
B          1.68408       -2.42834        0.22944
B          3.14138       -1.63191        0.20200
B          4.59432       -0.80796       -0.27731
B          4.43478       -2.36881       -0.54473
B          3.11371       -3.24834       -0.37747
B          1.69180       -4.09636       -0.37779
B          0.29764       -3.32940        0.31001
B          0.27445       -4.75155       -0.52617
B         -2.56120       -3.33537       -0.01598
B         -1.14670       -4.15544       -0.25218
B         -2.58127       -1.70126        0.38344
B         -3.96167       -2.50428       -0.16703
B         -4.02468       -0.83178        0.30296
B         -1.15012       -2.53936        0.54614
B         -1.13860        2.55959        0.58617
B          3.22853        0.09494        0.61372
B         -1.11653       -0.79880        0.69567
B          4.45535        2.38836       -0.50186
B         -5.25313        1.75736       -0.64099
B         -5.25655        0.12096       -0.42164
B         -5.26500       -1.68704       -0.67064
B         -6.40473       -0.72818       -1.26903
B         -6.40983        0.81220       -1.25840
B          1.75221       -0.82549        0.80541
B         -1.59223       -1.24800        1.84575
B          0.31703        1.74021        0.87896
B          5.93038        1.64289       -0.70658
B          6.10999       -0.04641       -0.78073
B          5.91341       -1.74787       -0.80383
B         -0.75339        0.60519       -0.22270
