45
isomer_3566.log	Energy: -113264.0497111
B         -2.52006        1.72225        0.60357
B         -2.44373        3.36981       -0.07026
B         -1.08637        4.12933       -0.12978
B          0.35289        3.47029        0.71513
B         -1.11899        0.95214        0.95832
B          1.76970        0.93321        1.01079
B          1.75345        4.08588       -0.22788
B         -3.89926        0.95521        0.13040
B          1.82754        2.61315        0.53241
B         -3.70167        2.51220       -0.31976
B          0.32470        4.58235       -0.43013
B          3.14565        3.26692       -0.23960
B          3.16359        1.68294        0.30327
B          4.45688        0.74522       -0.31287
B          0.18520       -1.29592        1.28929
B          1.50555       -2.38527       -0.01744
B          3.02291       -1.74958        0.20314
B          4.48031       -0.98177       -0.23981
B          4.21541       -2.61643       -0.73259
B          2.84583       -3.34145       -0.30503
B          1.45846       -4.18447        0.00294
B          0.11414       -3.28416        0.41510
B          0.06924       -4.81929        0.16972
B         -2.71968       -3.28647        0.10586
B         -1.36757       -4.10528        0.22158
B         -2.70494       -1.52839        0.41966
B         -4.01388       -2.40959       -0.13579
B         -4.04578       -0.77789        0.20956
B         -1.30844       -2.35939        0.40549
B         -1.11154        2.57987        0.56513
B          3.16084       -0.03388        0.48337
B         -1.25080       -0.65770        0.58475
B          4.45390        2.38002       -0.73002
B         -5.05030        1.74762       -0.86237
B         -5.21058        0.13485       -0.44726
B         -5.30889       -1.54563       -0.69381
B         -6.27776       -0.61888       -1.45183
B         -6.15307        0.88156       -1.54709
B          1.65748       -0.78537        0.71445
B          0.35983        0.25288        1.66226
B          0.35704        1.87651        1.31312
B          5.50824        1.41395       -1.28588
B          5.60816       -0.19319       -1.27597
B          5.39526       -1.74034       -1.27581
B          0.10112       -1.58782       -0.28829
