45
isomer_3568.log	Energy: -112536.2781377
B          2.61004       -1.63376        0.39627
B          2.61116       -3.27013        0.00910
B          1.20925       -4.10765       -0.23588
B         -0.25196       -3.28660        0.31942
B          1.14557       -0.75205        0.70740
B         -1.72883       -0.79938        0.79560
B         -1.63819       -4.07751       -0.37137
B          4.06329       -0.75052        0.32498
B         -1.64049       -2.40075        0.22796
B          4.01347       -2.44084       -0.13907
B         -0.20949       -4.73185       -0.51514
B         -3.07521       -3.23917       -0.38063
B         -3.11093       -1.62039        0.19287
B         -4.57606       -0.81432       -0.29879
B         -0.31003        1.76519        0.87168
B         -1.69743        2.45459        0.24993
B         -3.14917        1.64030        0.20763
B         -4.59505        0.80459       -0.29146
B         -4.44599        2.36518       -0.52980
B         -3.15149        3.26460       -0.35120
B         -1.73452        4.13630       -0.33420
B         -0.33005        3.37190        0.34954
B         -0.32158        4.82524       -0.47190
B          2.53264        3.42539        0.03939
B          1.11145        4.23198       -0.19814
B          2.56993        1.78601        0.41174
B          3.95399        2.63059       -0.11612
B          4.04349        0.93776        0.33262
B          1.13040        2.59271        0.57949
B          1.18984       -2.47550        0.55656
B         -3.21180       -0.09280        0.59651
B          1.12657        0.86741        0.71473
B         -4.39047       -2.36878       -0.55122
B          5.32769       -1.61835       -0.64073
B          5.30593        0.01160       -0.39942
B          5.28709        1.84371       -0.62506
B          6.46292        0.90537       -1.23271
B          6.48113       -0.64723       -1.23973
B         -1.74813        0.84652        0.80305
B          0.99592       -1.40963       -0.42720
B         -0.26957       -1.68466        0.85607
B         -5.90752       -1.67452       -0.76074
B         -6.12272        0.03659       -0.81781
B         -5.94525        1.76877       -0.81576
B          0.39021       -0.61590        2.20155
