45
isomer_3569.log	Energy: -112456.5653739
B          2.57151       -1.66314        0.42722
B          2.56840       -3.30314        0.05573
B          1.16423       -4.13997       -0.17844
B         -0.29413       -3.31052        0.37186
B          1.10954       -0.77536        0.73279
B         -1.76477       -0.81570        0.82713
B         -1.68341       -4.10504       -0.30857
B          4.02649       -0.78373        0.34460
B         -1.68096       -2.42262        0.27467
B          3.97216       -2.47831       -0.10314
B         -0.25639       -4.76378       -0.44890
B         -3.11867       -3.26375       -0.32302
B         -3.14981       -1.63948        0.23503
B         -4.61421       -0.83503       -0.26143
B         -0.34038        1.74645        0.87584
B         -1.72756        2.43283        0.25026
B         -3.18111        1.62128        0.21863
B         -4.62975        0.78392       -0.26957
B         -4.47786        2.34184       -0.52313
B         -3.18110        3.24016       -0.35572
B         -1.76225        4.10894       -0.34987
B         -0.35805        3.34812        0.33838
B         -0.34813        4.79351       -0.49696
B          2.50412        3.39251        0.02207
B          1.08417        4.19984       -0.22037
B          2.53869        1.75670        0.41002
B          3.92347        2.59322       -0.12864
B          4.01028        0.90459        0.33611
B          1.10121        2.56805        0.57288
B          1.14986       -2.50026        0.59837
B         -3.24663       -0.10789        0.62421
B          1.09400        0.84413        0.72465
B         -4.43242       -2.39222       -0.49933
B          5.28712       -1.66347       -0.61526
B          5.26929       -0.03124       -0.38953
B          5.25388        1.79867       -0.63267
B          6.42650        0.85204       -1.23362
B          6.44141       -0.70059       -1.22581
B         -1.78057        0.83023        0.81886
B          1.40348       -1.33614       -0.60197
B         -0.30727       -1.70348        0.89319
B         -5.94841       -1.69676       -0.71249
B         -6.16010        0.01418       -0.78551
B         -5.97895        1.74593       -0.80041
B          1.52305        0.51445        1.51185
