45
isomer_3570.log	Energy: -113483.4570723
B         -2.68595       -1.52899       -1.04943
B         -2.67991       -2.93631       -0.02830
B         -1.37471       -3.70451        0.30809
B          0.09340       -3.25830       -0.36920
B         -1.16680       -0.76011       -1.36067
B          1.64713       -0.81693       -0.62840
B          1.39978       -4.04744        0.49327
B         -3.86891       -0.66531       -0.19515
B          1.60240       -2.46533       -0.28870
B         -4.11835       -2.27524       -0.18348
B         -0.02202       -4.44960        0.70797
B          2.85846       -3.35326        0.36686
B          3.05784       -1.80749       -0.20280
B          4.58131       -1.06191       -0.11728
B          0.46601        1.72790       -1.01076
B          1.90789        2.41568       -0.42350
B          3.28161        1.57597       -0.27052
B          4.59516        0.58341        0.14136
B          4.64759        2.27054        0.52187
B          3.30220        3.13951        0.18289
B          1.94340        4.06985        0.21099
B          0.54460        3.38636       -0.47580
B          0.59490        4.76606        0.30263
B         -2.17177        3.39905        0.17060
B         -0.85834        4.20701        0.08758
B         -2.23926        1.72119       -0.20943
B         -3.54796        2.61388        0.44435
B         -3.62994        0.95571        0.20384
B         -0.97150        2.62824       -0.75178
B         -1.31847       -2.57337       -1.15434
B          3.24881       -0.13420       -0.63792
B         -0.95063        0.87014       -0.99735
B          4.30474       -2.62355        0.63463
B         -5.35688       -1.42870        0.29647
B         -5.17474        0.30655        0.29194
B         -4.91827        1.89899        0.91214
B         -6.12752        1.00926        1.36515
B         -6.33083       -0.47058        1.09239
B          1.76527        0.75332       -0.85807
B         -2.16924       -0.06906       -0.02939
B          0.15825       -1.61345       -0.75184
B          5.44304       -1.73261        1.07390
B          5.84710       -0.23098        0.95752
B          5.77211        1.31550        0.93303
B         -1.38101       -1.60686        0.29466
