45
isomer_3572.log	Energy: -113458.7451721
B          2.56840       -1.60758        0.43634
B          2.52363       -3.31379       -0.05010
B          1.22547       -4.12523        0.18843
B         -0.23121       -3.32933        0.94075
B          1.21567       -0.73972        0.82774
B         -1.57920       -0.75259        0.51654
B         -1.55606       -4.14128       -0.00493
B          3.89517       -0.85408        0.10517
B         -1.40943       -2.41343        0.04918
B          3.80505       -2.45351       -0.31183
B         -0.18149       -4.71753        0.08024
B         -2.87392       -3.28695       -0.30023
B         -3.00092       -1.71904        0.11034
B         -4.46205       -0.86735       -0.10873
B         -0.32618        1.81896        1.21062
B         -1.70957        2.57024        0.47568
B         -3.08762        1.74703        0.22336
B         -4.35969        0.78817       -0.39859
B         -4.33464        2.46513       -0.76506
B         -3.01552        3.32288       -0.26888
B         -1.64744        4.15883       -0.19948
B         -0.27409        3.43720        0.65495
B         -0.22353        4.70665       -0.31627
B          2.53824        3.38213        0.05435
B          1.18967        4.14666       -0.02054
B          2.54963        1.66122        0.63600
B          3.79844        2.51329       -0.20122
B          3.90677        0.91241        0.15510
B          1.20103        2.57687        0.74347
B          1.08670       -2.40735        0.25380
B         -3.15009       -0.00013        0.49993
B          1.20189        0.93720        1.06718
B         -4.20857       -2.50286       -0.76252
B          5.11921       -1.60945       -0.86819
B          5.15401        0.03571       -0.44721
B          5.09281        1.68968       -0.77098
B          6.12639        0.79706       -1.52087
B          6.13251       -0.69961       -1.55501
B         -1.74936        0.92439        0.98496
B         -0.24714        0.00382        1.24691
B         -0.28780       -1.73350        1.45884
B         -5.31273       -1.56299       -1.26423
B         -5.57320       -0.04050       -1.27166
B         -5.42828        1.53659       -1.27881
B         -0.10097       -1.25432       -0.23454
