45
isomer_3573.log	Energy: -113436.8642928
B          2.43811        1.85511       -0.53919
B          2.37774        3.46202       -0.05334
B          0.98142        4.25192       -0.02225
B         -0.43145        3.48672       -0.68365
B          1.03541        0.98473       -1.12559
B         -1.70645        0.82568       -0.87721
B         -1.81195        4.18769        0.02271
B          3.78953        0.98429       -0.10286
B         -1.81816        2.53563       -0.68626
B          3.72289        2.64391        0.30601
B         -0.44233        4.82446        0.17427
B         -3.15487        3.26821        0.04379
B         -3.18069        1.66639       -0.30955
B         -4.52581        0.73907        0.15773
B         -0.30411       -1.72111       -1.45370
B         -1.31458       -2.36458       -0.11734
B         -2.85070       -1.75084        0.01841
B         -4.26508       -0.87006        0.47114
B         -3.97231       -2.46730        1.10300
B         -2.69869       -3.27490        0.53898
B         -1.50499       -4.22292        0.09532
B         -0.23980       -3.37674       -0.81732
B         -0.21891       -4.88661       -0.20665
B          2.38858       -3.19770       -0.37890
B          1.17033       -4.18687       -0.47673
B          2.13431       -1.53706       -0.20386
B          3.60979       -2.36219        0.32193
B          3.68875       -0.75832        0.03042
B          1.20846       -2.62757       -1.46115
B          1.06539        2.69237       -0.78862
B         -3.11489       -0.07954       -0.50124
B          0.91248       -0.68393       -0.99057
B         -4.40347        2.42188        0.61418
B          4.93489        1.82928        0.92555
B          4.87352        0.11232        0.84445
B          4.78357       -1.59563        1.06624
B          5.90285       -0.64967        1.76230
B          5.97830        0.86600        1.67919
B         -1.59685       -0.79143       -0.90866
B          2.42954        0.16800       -0.77782
B         -0.40425        1.79632       -1.14649
B         -5.37186        1.46262        1.30148
B         -5.45309       -0.07245        1.45817
B         -5.14581       -1.59414        1.56720
B          0.50524       -1.99305        0.12650
