45
isomer_3574.log	Energy: -110169.0694986
B         -2.53678        1.73970        0.32120
B         -2.51099        3.37893       -0.05276
B         -1.09482        4.20060       -0.26753
B          0.34650        3.35688        0.30548
B         -1.08886        0.83718        0.64966
B          1.78401        0.84758        0.78625
B          1.75390        4.13563       -0.35566
B         -3.99953        0.87542        0.21854
B          1.72521        2.45433        0.23011
B         -3.92084        2.56857       -0.23100
B          0.33609        4.80904       -0.51802
B          3.18031        3.27934       -0.34765
B          3.18618        1.65579        0.21332
B          4.64920        0.83520       -0.26026
B          0.33225       -1.69942        0.81798
B          1.72121       -2.40137        0.21397
B          3.18350       -1.60514        0.20248
B          4.64787       -0.78383       -0.26564
B          4.48339       -2.34051       -0.51898
B          3.17495       -3.22491       -0.36928
B          1.74713       -4.07878       -0.38297
B          0.34101       -3.30212        0.28334
B          0.32822       -4.74875       -0.54979
B         -2.51650       -3.31708       -0.07502
B         -1.10169       -4.13964       -0.29525
B         -2.53960       -1.68033        0.30983
B         -3.92502       -2.50323       -0.24786
B         -4.00093       -0.81298        0.21293
B         -1.11326       -2.50641        0.49511
B         -1.10909        2.56217        0.51196
B          3.26119        0.12394        0.60629
B         -1.09019       -0.78240        0.64427
B          4.48729        2.39380       -0.50324
B         -5.23660        1.76666       -0.76115
B         -5.23923        0.13473       -0.53264
B         -5.23946       -1.69565       -0.77266
B         -6.39311       -0.73783       -1.39230
B         -6.39183        0.81489       -1.38714
B          1.78266       -0.79844        0.78078
B         -2.70843        0.04051        2.82919
B          0.33510        1.75068        0.82945
B          5.99887        1.68214       -0.69296
B          6.19364       -0.03105       -0.76019
B          5.99457       -1.76082       -0.77504
B         -1.21747       -1.29303        0.85282
