45
isomer_3575.log	Energy: -113393.9351213
B          2.35715       -1.41899        0.55324
B          2.34112       -3.08258       -0.48495
B          1.02783       -3.85353       -0.73142
B         -0.41166       -3.48927        0.26594
B          0.94302       -1.03320        1.16447
B         -1.76749       -0.84403        1.14985
B         -1.80265       -3.90031       -0.70093
B          3.91555       -0.87102        0.28871
B         -1.82031       -2.51498        0.32753
B          3.61243       -2.25884       -0.41006
B         -0.39764       -4.33690       -1.07867
B         -3.17116       -3.10779       -0.41096
B         -3.14250       -1.61131        0.25311
B         -4.36264       -0.58794       -0.33551
B         -0.11831        1.65818        0.70236
B         -1.56157        2.53229        0.26325
B         -3.01356        1.84322        0.38109
B         -4.48380        1.03837        0.02895
B         -4.28263        2.68249       -0.51666
B         -2.87480        3.40570       -0.25700
B         -1.43397        4.10351       -0.43821
B         -0.02966        3.24316        0.19631
B         -0.00221        4.51151       -0.74892
B          2.73927        3.14390       -0.22948
B          1.39765        3.88209       -0.48400
B          2.72692        1.45110        0.55692
B          4.06609        2.33975       -0.16011
B          4.18449        0.84371        0.42777
B          1.38775        2.22838        0.11956
B          1.05395       -2.51353        0.31735
B         -3.12689        0.09847        0.58812
B          1.37790        0.58124        0.72072
B         -4.52669       -2.24224       -0.66916
B          5.10844       -1.67926       -0.64716
B          5.37859       -0.11779       -0.06813
B          5.46252        1.52645       -0.44547
B          6.47258        0.55767       -1.10594
B          6.31553       -0.91010       -1.19057
B         -1.61398        0.86726        0.69325
B         -0.53812       -1.03729        2.32684
B         -0.42042       -2.18870        1.27876
B         -5.63899       -1.28083       -1.02126
B         -5.71223        0.28602       -1.01261
B         -5.41894        1.80470       -1.01963
B         -0.19597        0.25128        1.56269
