45
isomer_3576.log	Energy: -112451.9594890
B         -2.61810        1.71783        0.40719
B         -2.60787        3.35673        0.03102
B         -1.20031        4.18534       -0.21185
B          0.25605        3.34963        0.33424
B         -1.15954        0.82308        0.70871
B          1.71534        0.84824        0.79000
B          1.64648        4.13474       -0.35470
B         -4.07812        0.84601        0.33363
B          1.63765        2.45402        0.23334
B         -4.01673        2.53900       -0.11918
B          0.22240        4.80074       -0.49049
B          3.07713        3.28572       -0.37321
B          3.10209        1.66289        0.18932
B          4.55990        0.84919       -0.31143
B          0.27748       -1.70607        0.85242
B          1.65813       -2.40166        0.22256
B          3.11584       -1.59802        0.18207
B          4.56673       -0.76983       -0.31503
B          4.40535       -2.32763       -0.56346
B          3.10457       -3.21849       -0.38765
B          1.68113       -4.07963       -0.37295
B          0.28414       -3.30933        0.31945
B          0.26271       -4.75700       -0.51171
B         -2.57963       -3.33924        0.01615
B         -1.16513       -4.15486       -0.23037
B         -2.60367       -1.70218        0.39960
B         -3.99534       -2.53277       -0.13044
B         -4.07100       -0.84239        0.32988
B         -1.16984       -2.52077        0.55830
B         -1.19122        2.54778        0.56955
B          3.19246        0.13191        0.58243
B         -1.15271       -0.79650        0.70511
B          4.38539        2.40665       -0.55295
B         -5.33834        1.72979       -0.62304
B         -5.32824        0.09814       -0.39275
B         -5.32374       -1.73251       -0.63073
B         -6.49397       -0.78130       -1.22910
B         -6.50052        0.77141       -1.22565
B          1.72229       -0.79777        0.78634
B         -0.69891       -0.46856       -0.28479
B          0.26293        1.74402        0.86008
B          5.89665        1.70246       -0.77095
B          6.09884       -0.00979       -0.84005
B          5.90835       -1.74057       -0.84919
B          0.25289       -0.39842        2.36029
