45
isomer_3578.log	Energy: -112139.1706076
B         -2.62265        1.71866        0.38032
B         -2.61249        3.35521       -0.00592
B         -1.20483        4.18326       -0.25012
B          0.25061        3.35191        0.30502
B         -1.16432        0.82677        0.69127
B          1.71032        0.85437        0.78012
B          1.64237        4.13371       -0.38501
B         -4.08190        0.84542        0.30822
B          1.63306        2.45663        0.21336
B         -4.02040        2.53562       -0.15486
B          0.21822        4.79789       -0.52873
B          3.07362        3.28555       -0.39444
B          3.09814        1.66624        0.17816
B          4.55783        0.85045       -0.31365
B          0.27398       -1.70047        0.85444
B          1.65677       -2.39900        0.23259
B          3.11406       -1.59464        0.19107
B          4.56573       -0.76856       -0.30723
B          4.40605       -2.32796       -0.54648
B          3.10538       -3.21860       -0.36868
B          1.68248       -4.08059       -0.35248
B          0.28313       -3.30699        0.33140
B          0.26488       -4.75977       -0.49087
B         -2.57979       -3.34070        0.02060
B         -1.16410       -4.15687       -0.21709
B         -2.60595       -1.70132        0.39387
B         -3.99564       -2.53611       -0.13477
B         -4.07365       -0.84297        0.31491
B         -1.17201       -2.51795        0.56147
B         -1.19676        2.55056        0.54139
B          3.18846        0.13777        0.58095
B         -1.15641       -0.79279        0.69769
B          4.38294        2.40628       -0.56524
B         -5.34012        1.72243       -0.65727
B         -5.32956        0.09223       -0.41689
B         -5.32321       -1.73984       -0.64356
B         -6.49246       -0.79313       -1.25092
B         -6.50004        0.75956       -1.25707
B          1.71836       -0.79162        0.78664
B         -0.23624        0.34293        2.41127
B          0.25713        1.74958        0.84078
B          5.89525        1.70178       -0.77482
B          6.09874       -0.01074       -0.83281
B          5.90942       -1.74167       -0.83179
B         -0.11442       -1.20249        0.06518
