45
isomer_3579.log	Energy: -113500.9891754
B         -2.67014       -1.33698       -1.06514
B         -2.74432       -2.77441        0.22471
B         -1.37281       -3.64129        0.32159
B          0.06630       -3.18945       -0.45563
B         -1.03012       -0.60273       -1.14190
B          1.71947       -0.82409       -0.85237
B          1.36792       -4.05767        0.27457
B         -3.91183       -0.31637       -1.02623
B          1.58522       -2.50676       -0.56702
B         -4.12774       -2.81203        0.98437
B         -0.07816       -4.42385        0.55770
B          2.84775       -3.40709        0.12937
B          3.10679       -1.87445       -0.35327
B          4.62930       -1.15991       -0.06164
B          0.59488        1.78281       -0.93698
B          2.04237        2.41844       -0.35280
B          3.40283        1.51488       -0.19762
B          4.73931        0.49124        0.09568
B          4.72187        2.09255        0.73546
B          3.42502        3.03172        0.39282
B          2.11197        3.98670        0.49528
B          0.70482        3.40494       -0.30248
B          0.76763        4.64351        0.70095
B         -2.13997        3.52064        0.12764
B         -0.70115        4.18659        0.36829
B         -2.29700        1.98170       -0.57424
B         -3.55160        2.73245        0.28486
B         -3.85726        1.27090       -0.52109
B         -0.82277        2.74592       -0.50728
B         -1.38046       -2.23271       -0.63949
B          3.32447       -0.18169       -0.63663
B         -0.91043        1.05271       -1.08911
B          4.28928       -2.77760        0.49195
B         -5.21211       -1.76932        1.16676
B         -4.91593        0.02293        0.28876
B         -4.76956        1.86688        0.74894
B         -5.85002        0.94824        1.31484
B         -6.03268       -0.48081        1.41638
B          1.87739        0.78108       -0.82755
B         -3.96155       -1.55662        0.06874
B          0.27614       -1.57814       -1.03843
B          5.50671       -1.99166        0.97594
B          5.84851       -0.48161        1.03193
B          5.78528        1.07942        1.13461
B         -2.40361        0.42096       -1.18525
