45
isomer_3581.log	Energy: -113347.4989236
B          2.37855        1.79901       -0.60732
B          2.13506        3.52126        0.10201
B          0.75075        4.15961        0.15090
B         -0.62594        3.40790       -0.55793
B          0.99165        1.02638       -1.10475
B         -1.80048        0.77504       -0.87299
B         -2.06175        4.03630        0.16599
B          3.85473        1.36899       -0.35717
B         -1.99251        2.43577       -0.53834
B          3.47759        2.83663        0.24136
B         -0.71061        4.68101        0.38495
B         -3.41293        3.10980        0.10165
B         -3.33225        1.54287       -0.32101
B         -4.55600        0.49645        0.22452
B         -0.03805       -1.44858       -0.59170
B         -1.44402       -2.39164       -0.15325
B         -2.94735       -1.82705       -0.11122
B         -4.50939       -1.14657       -0.03933
B         -4.15665       -2.69498        0.71283
B         -2.68177       -3.36442        0.41842
B         -1.21447       -4.08359        0.36748
B          0.08143       -3.12540       -0.37228
B          0.19041       -4.57569        0.31796
B          2.89275       -3.03242       -0.47261
B          1.53005       -3.83904       -0.18706
B          2.71529       -1.41942       -1.17478
B          4.17817       -2.16973       -0.39123
B          3.62270       -0.31258       -0.36989
B          1.35115       -2.45592       -1.36600
B          0.90129        2.61263       -0.64637
B         -3.23072       -0.17868       -0.57104
B          1.29676       -0.55322       -1.00798
B         -4.72336        2.19247        0.47555
B          4.79829        2.06934        0.89788
B          4.91835        0.44315        0.46188
B          4.72263       -1.24708        0.80051
B          5.54098       -0.32520        1.77618
B          5.66727        1.15357        1.74812
B         -1.58161       -0.75734       -0.56868
B          2.96018       -1.53440        0.69636
B         -0.49181        1.74223       -1.09678
B         -5.78866        1.19480        0.94954
B         -5.77955       -0.36120        1.04290
B         -5.34232       -1.84939        1.14936
B          1.46617       -1.91166        0.29336
