45
isomer_3582.log	Energy: -113547.3062197
B          1.28442       -1.71273       -0.13108
B          1.26185       -3.50420       -0.30856
B          0.06960       -4.30500        0.30314
B         -1.08430       -3.35440        1.14561
B          2.25806       -0.52212        0.83341
B         -1.64858       -0.54406        0.89023
B         -2.60754       -3.81887        0.53765
B          3.01210       -1.44958       -0.41830
B         -2.26760       -2.16363        0.98433
B          2.40787       -2.79892       -1.10119
B         -1.41082       -4.75229        0.44171
B         -3.69701       -2.63702        0.20362
B         -3.19036       -1.09779        0.17104
B         -4.11066        0.02943       -0.70503
B          0.06037        1.98715        1.58683
B         -0.93644        2.80396        0.57309
B         -2.10350        2.08648       -0.29843
B         -3.72099        1.63964       -0.58049
B         -3.14736        3.09749       -1.27412
B         -1.79338        3.67762       -0.59985
B         -0.42515        4.36039       -0.14326
B          0.48310        3.53354        1.12751
B          0.97998        4.77594        0.20785
B          3.20774        2.71091        0.75457
B          2.12668        3.89724        0.64294
B          2.67279        1.15586        0.74328
B          4.22834        1.62654        0.12330
B          3.79419       -0.00518        0.20787
B          1.68951        2.32222        1.30249
B          0.58956       -2.83112        1.06146
B         -2.69809        0.56181        0.14543
B          0.96598        0.61100        1.19199
B         -4.65271       -1.59799       -0.63554
B          3.65154       -2.17779       -1.86519
B          4.31132       -0.74544       -1.21094
B          5.12615        0.67057       -0.73607
B          5.71108       -0.31777       -1.84582
B          5.01604       -1.54127       -2.39365
B         -0.90813        0.94786        0.59811
B          0.04667       -0.57709        0.26272
B         -0.65980       -1.70208        1.54111
B         -5.40887       -0.50991       -1.42987
B         -5.08439        0.99238       -1.69171
B         -4.37573        2.38023       -1.83800
B          0.97645       -1.20202        1.62580
