45
isomer_3583.log	Energy: -113478.3587743
B          2.52266        1.65660       -0.56287
B          2.48558        3.31750        0.06169
B          1.11039        4.09987        0.27373
B         -0.32235        3.38773       -0.35848
B          1.15811        0.90590       -1.02047
B         -1.78063        0.89509       -0.94844
B         -1.70507        4.14811        0.40791
B          3.93895        0.92803       -0.28414
B         -1.76174        2.55477       -0.44803
B          3.82827        2.50752        0.11567
B         -0.30100        4.69813        0.56562
B         -3.07289        3.29148        0.35142
B         -3.15368        1.75047       -0.22856
B         -4.49617        0.78940        0.21793
B         -0.18058       -1.60469       -0.45540
B         -1.65778       -2.47678       -0.37294
B         -3.11384       -1.70307       -0.39051
B         -4.57756       -0.84869       -0.15380
B         -4.38377       -2.46516        0.46023
B         -3.01964       -3.30797        0.07515
B         -1.64696       -4.12922        0.13213
B         -0.13372       -3.32233       -0.58112
B         -0.29545       -4.54040        0.54661
B          2.48519       -3.11758        0.42617
B          1.12522       -3.87681        0.48778
B          2.57552       -1.70155       -0.62312
B          3.84505       -2.30176        0.38661
B          3.94628       -0.81549       -0.25910
B          1.33263       -2.74451       -1.06884
B          1.16351        2.60688       -0.63996
B         -3.25856        0.05066       -0.67163
B          1.28100       -0.72670       -0.72852
B         -4.42419        2.45280        0.72614
B          5.21833        1.72959        0.51578
B          5.28710        0.08213        0.10353
B          5.22659       -1.51732        0.65064
B          6.32294       -0.59672        1.21791
B          6.31670        0.87853        1.14578
B         -1.67000       -0.75451       -0.72667
B          1.11242       -2.05037        0.53491
B         -0.34912        1.86597       -1.04747
B         -5.56091        1.51847        1.14208
B         -5.72609       -0.02682        1.06654
B         -5.44299       -1.54603        1.01788
B         -0.24779        0.05887       -1.05977
