45
isomer_3584.log	Energy: -113456.0320138
B         -2.54250        1.69847        0.64939
B         -2.47102        3.37406       -0.13045
B         -1.10797        4.15432       -0.25617
B          0.32554        3.38319        0.34022
B         -1.17873        0.88862        1.01932
B          1.73856        0.84013        0.78372
B          1.72862        4.16878       -0.34176
B         -3.93916        0.98972        0.28588
B          1.76173        2.53982        0.47309
B         -3.76270        2.53121       -0.22851
B          0.33078        4.74093       -0.50114
B          3.09820        3.31155       -0.27417
B          3.17821        1.74619        0.28646
B          4.60740        0.81401        0.07393
B          0.20415       -1.76949        0.99090
B          1.68676       -2.48173        0.45356
B          3.07436       -1.72070        0.34891
B          4.38806       -0.81466       -0.25080
B          4.36895       -2.47167       -0.61580
B          2.95304       -3.27899       -0.28094
B          1.60552       -4.08912       -0.40928
B          0.16614       -3.21570        0.24290
B          0.21653       -4.55541       -0.68594
B         -2.55107       -3.19848       -0.00315
B         -1.20552       -3.89429       -0.44233
B         -2.53589       -1.54294        0.47451
B         -3.91447       -2.33909       -0.14487
B         -3.97405       -0.77428        0.25014
B         -1.32154       -2.67007        1.17874
B         -1.14716        2.50620        0.34700
B          3.24255        0.01293        0.65252
B         -1.18987       -0.78571        0.82784
B          4.43020        2.46940       -0.59729
B         -5.15751        1.76288       -0.63799
B         -5.25372        0.14046       -0.19870
B         -5.24494       -1.51574       -0.59146
B         -6.29769       -0.58843       -1.24680
B         -6.26094        0.89830       -1.26552
B          1.71790       -0.81443        1.07284
B         -1.10196       -2.10013       -0.46358
B          0.32975        1.77980        0.77357
B          5.50042        1.48242       -1.07539
B          5.71678       -0.03604       -1.04682
B          5.51881       -1.61157       -1.04746
B          0.26943        0.03525        1.21091
