45
isomer_3585.log	Energy: -110377.0634853
B          2.56804       -1.67456        0.28201
B          2.56227       -3.30819       -0.11651
B          1.15625       -4.14374       -0.34401
B         -0.29531       -3.32633        0.24116
B          1.10919       -0.79478        0.62353
B         -1.76336       -0.84223        0.75910
B         -1.69304       -4.11217       -0.43201
B          4.02017       -0.79108        0.19276
B         -1.68491       -2.43962        0.17893
B          3.96216       -2.47812       -0.28215
B         -0.26711       -4.76574       -0.60403
B         -3.12978       -3.27354       -0.41159
B         -3.15551       -1.65878        0.17368
B         -4.62837       -0.84906       -0.28797
B         -0.34275        1.72151        0.82947
B         -1.74009        2.41546        0.23564
B         -3.19256        1.60173        0.21177
B         -4.64676        0.76976       -0.26906
B         -4.50124        2.33195       -0.49896
B         -3.20369        3.22988       -0.33562
B         -1.78638        4.10120       -0.33607
B         -0.37098        3.33182        0.31894
B         -0.37572        4.79084       -0.49240
B          2.48618        3.38697       -0.03830
B          1.06148        4.19545       -0.24660
B          2.52918        1.74503        0.32195
B          3.90453        2.59303       -0.22291
B          4.00098        0.89711        0.21249
B          1.09286        2.55080        0.51918
B          1.15046       -2.51714        0.45998
B         -3.24923       -0.13403        0.58956
B          1.09078        0.82460        0.64245
B         -4.44744       -2.40175       -0.55426
B          5.26812       -1.65238       -0.79982
B          5.25083       -0.02415       -0.54684
B          5.22877        1.80949       -0.75938
B          6.39409        0.87521       -1.39297
B          6.41173       -0.67731       -1.41110
B         -1.78207        0.80358        0.77832
B          2.31409       -1.02762        3.13366
B         -0.30355       -1.72816        0.78917
B         -5.96756       -1.70580       -0.73374
B         -6.18318        0.00571       -0.77531
B         -6.00521        1.73781       -0.76415
B          1.15365        0.60737        1.16201
