45
isomer_3586.log	Energy: -112408.0806986
B          2.64158       -1.64156        0.38237
B          2.64009       -3.27438       -0.01949
B          1.23682       -4.10757       -0.27133
B         -0.22292       -3.28937        0.29200
B          1.17857       -0.76049        0.70209
B         -1.69585       -0.80433        0.79120
B         -1.61063       -4.07198       -0.40523
B          4.09612       -0.75987        0.31835
B         -1.61016       -2.40067        0.20914
B          4.04356       -2.44588       -0.16085
B         -0.18298       -4.72713       -0.55554
B         -3.04641       -3.23144       -0.40629
B         -3.07945       -1.61783        0.18175
B         -4.54360       -0.80520       -0.30197
B         -0.27319        1.75734        0.88966
B         -1.65984        2.45436        0.27476
B         -3.11281        1.64265        0.22582
B         -4.56016        0.81361       -0.28009
B         -4.40888        2.37606       -0.50446
B         -3.11295        3.27191       -0.31839
B         -1.69468        4.14131       -0.29421
B         -0.29105        3.36870        0.38199
B         -0.28077        4.82935       -0.42637
B          2.57158        3.42071        0.07100
B          1.15149        4.23152       -0.15862
B          2.60659        1.77799        0.42859
B          3.99167        2.62522       -0.09230
B          4.07885        0.92830        0.34116
B          1.16834        2.58531        0.60424
B          1.22020       -2.48258        0.53574
B         -3.17786       -0.09378        0.59915
B          1.16200        0.85887        0.72398
B         -4.36045       -2.35759       -0.56844
B          5.35879       -1.62087       -0.65571
B          5.33957        0.00687       -0.39976
B          5.32337        1.84097       -0.60892
B          6.49752        0.90637       -1.22551
B          6.51340       -0.64613       -1.24649
B         -1.71269        0.84146        0.81344
B          0.60370       -2.11164        1.43607
B         -0.23789       -1.69229        0.84303
B         -5.87655       -1.65923       -0.77101
B         -6.08922        0.05265       -0.81260
B         -5.90916        1.78448       -0.79507
B         -0.67363        0.08579        0.23312
