45
isomer_3587.log	Energy: -113414.7040789
B          2.59801        1.70104       -0.43425
B          2.49534        3.32248        0.25454
B          1.15830        4.09893        0.41352
B         -0.35522        3.40243       -0.39202
B          1.10670        0.95885       -0.70336
B         -1.83031        0.83297       -0.83678
B         -1.71852        4.01061        0.41133
B          4.00066        0.93736       -0.44903
B         -1.82057        2.53955       -0.47218
B          3.87331        2.40277        0.37498
B         -0.29728        4.57248        0.68129
B         -3.17185        3.23003        0.25377
B         -3.23432        1.68400       -0.33348
B         -4.68588        0.75322       -0.15792
B         -0.24129       -1.69518       -1.09073
B         -1.67797       -2.50616       -0.48788
B         -3.14164       -1.75529       -0.43136
B         -4.48955       -0.89090        0.10013
B         -4.38766       -2.52013        0.57485
B         -2.93061       -3.26186        0.31306
B         -1.50017       -3.86616        0.58197
B         -0.05413       -3.03254       -0.08232
B         -0.09332       -4.21852        1.03523
B          2.48814       -3.15748       -0.14511
B          1.34231       -3.73647        0.72344
B          2.61345       -1.60217       -0.90983
B          3.89864       -2.31706       -0.05024
B          4.01358       -0.74039       -0.55626
B          1.30310       -2.03181        0.41283
B          1.19630        2.61173       -0.43329
B         -3.33932       -0.03817       -0.76798
B          1.14387       -0.64535       -0.42902
B         -4.51465        2.38963        0.54850
B          5.23393        1.70456        0.67185
B          5.30640        0.07939        0.16350
B          5.15418       -1.58832        0.48278
B          6.29787       -0.70055        1.15928
B          6.38098        0.77833        1.16656
B         -1.77444       -0.86190       -1.04388
B          1.24894       -2.29260       -1.37170
B         -0.28874        1.80612       -0.92957
B         -5.57399        1.39463        1.01740
B         -5.78417       -0.12432        0.97072
B         -5.56196       -1.68238        0.99789
B         -0.38646        0.05463       -0.80124
