45
isomer_0359.log	Energy: -113396.8988780
B         -2.36270        1.73190        0.27970
B         -2.26249        3.37386       -0.25997
B         -0.88103        4.17835       -0.23106
B          0.47785        3.41863        0.62727
B         -1.06517        0.93686        0.88823
B          1.80721        0.76530        1.07857
B          1.89460        4.07426       -0.16763
B         -3.79694        1.02538       -0.03142
B          1.87080        2.47838        0.54441
B         -3.62683        2.56076       -0.49006
B          0.53854        4.71080       -0.36040
B          3.21122        3.13223       -0.17063
B          3.21847        1.57305        0.35653
B          4.51115        0.59037       -0.22904
B          0.16986       -1.59694        0.59621
B          1.49813       -2.44106        0.05813
B          3.01603       -1.82244        0.06988
B          4.52334       -1.09066       -0.06356
B          4.16173       -2.63456       -0.88501
B          2.76104       -3.37277       -0.52311
B          1.33091       -4.13040       -0.41628
B          0.02172       -3.26966        0.30804
B         -0.07536       -4.73541       -0.25583
B         -2.75863       -3.23954        0.26364
B         -1.44843       -4.08633        0.14340
B         -2.59496       -1.52921        0.38531
B         -4.03751       -2.36538        0.04450
B         -3.92900       -0.69869        0.08151
B         -1.33082       -2.41070        0.96329
B         -1.03235        2.65588        0.61569
B          3.24859       -0.15778        0.61160
B         -1.50045       -0.43087        0.20261
B          4.52631        2.25648       -0.60312
B         -5.05094        1.83760       -0.91480
B         -5.15262        0.21002       -0.43328
B         -5.29402       -1.45636       -0.59189
B         -6.31156       -0.51163       -1.32139
B         -6.21069        0.98624       -1.43650
B          1.65318       -0.81791        0.59515
B         -1.01006       -0.93450        1.71311
B          0.41763        1.83786        1.15195
B          5.61660        1.32752       -1.09184
B          5.66613       -0.23256       -1.19205
B          5.28932       -1.73053       -1.32011
B          0.30221        0.03418        1.41026
