45
isomer_3590.log	Energy: -113453.4249711
B          2.50894        1.70545       -0.53580
B          2.47550        3.40962        0.03725
B          1.10985        4.15861        0.10523
B         -0.32091        3.41841       -0.55859
B          1.20025        0.95472       -1.04997
B         -1.76593        0.88835       -1.00498
B         -1.72671        4.13159        0.22361
B          3.85931        0.96060       -0.04834
B         -1.75743        2.53154       -0.48024
B          3.75609        2.57087        0.28201
B         -0.31371        4.71719        0.36398
B         -3.07870        3.27489        0.23558
B         -3.12928        1.69347       -0.26662
B         -4.41661        0.73257        0.28932
B         -0.29986       -1.78766       -1.48659
B         -1.32659       -2.36698        0.16930
B         -2.95640       -1.75069       -0.07046
B         -4.46175       -0.92601        0.08944
B         -4.16411       -2.51076        0.82901
B         -2.79788       -3.26854        0.47142
B         -1.46986       -4.11249        0.21818
B         -0.23800       -3.33404       -0.82015
B         -0.10056       -4.69508        0.09336
B          2.59589       -3.28994       -0.05612
B          1.28832       -4.11290       -0.15634
B          2.60796       -1.58383       -0.53144
B          3.86515       -2.40124        0.23432
B          3.89449       -0.79092       -0.08878
B          1.19258       -2.43830       -0.58620
B          1.16636        2.60021       -0.73131
B         -3.17534       -0.05683       -0.57062
B          1.23913       -0.73641       -0.93775
B         -4.41246        2.41008        0.67434
B          5.08044        1.74042        0.81410
B          5.17987        0.10668        0.39299
B          5.18422       -1.55825        0.77316
B          6.21822       -0.65292        1.43409
B          6.16654        0.84163        1.47320
B         -1.61333       -0.84850       -0.72369
B         -0.01952       -1.24075        0.21270
B         -0.34544        1.82174       -1.15967
B         -5.50245        1.48026        1.16304
B         -5.61895       -0.09738        1.19223
B         -5.33581       -1.60656        1.23764
B         -0.24151        0.01809       -1.14587
