45
isomer_3592.log	Energy: -113656.9832911
B          2.55059        1.74787       -0.52126
B          2.49436        3.32658        0.02898
B          1.13459        4.14717        0.14396
B         -0.30568        3.39279       -0.46697
B          1.13203        0.85196       -1.03309
B         -1.79465        0.86856       -0.95174
B         -1.67790        4.17105        0.30827
B          3.93068        0.84581       -0.15457
B         -1.75760        2.55938       -0.45577
B          3.88971        2.49753        0.23535
B         -0.26043        4.73799        0.41932
B         -3.03817        3.31951        0.31664
B         -3.14420        1.74380       -0.24095
B         -4.50119        0.82938        0.27590
B         -0.35432       -1.74843       -0.81094
B         -1.79179       -2.54085       -0.51758
B         -3.18381       -1.71117       -0.24586
B         -4.61356       -0.84489        0.01060
B         -4.41348       -2.49853        0.63054
B         -3.10095       -3.35194        0.17065
B         -1.73121       -4.18668        0.21227
B         -0.33230       -3.36995       -0.40564
B         -0.30612       -4.77238        0.34911
B          2.47047       -3.34717        0.10533
B          1.10861       -4.19505        0.12708
B          2.52659       -1.76003       -0.55762
B          3.83684       -2.55081        0.30132
B          3.89808       -0.89268       -0.07276
B          1.12379       -2.55318       -0.57230
B          1.16672        2.59892       -0.74431
B         -3.29273        0.03822       -0.61213
B          1.14459       -0.87460       -1.11126
B         -4.36465        2.48443        0.78266
B          5.17441        1.68362        0.71947
B          5.25946       -0.03172        0.40853
B          5.12592       -1.72107        0.79332
B          6.20588       -0.77692        1.45268
B          6.23095        0.74638        1.41731
B         -1.76010       -0.78513       -0.66794
B          2.55035       -0.01762       -0.66934
B         -0.34989        1.84512       -1.08468
B         -5.46154        1.56260        1.29163
B         -5.64381        0.01657        1.23902
B         -5.42249       -1.51812        1.20927
B         -0.35205        0.03370       -1.05248
