45
isomer_3593.log	Energy: -113358.6464975
B          3.05734        1.69995       -0.55823
B          3.07382        3.08344        0.47230
B          1.72392        3.93048        0.66906
B          0.22866        3.39945       -0.24587
B          1.71548        0.98087       -1.05674
B         -1.30702        0.70892       -0.95672
B         -1.11309        3.94673        0.69843
B          4.10680        0.54332       -0.14072
B         -1.22825        2.44220       -0.23594
B          4.34200        2.10148        0.46849
B          0.31692        4.40540        1.00422
B         -2.50494        3.27181        0.39314
B         -2.72499        1.77077       -0.31987
B         -4.36453        1.22541       -0.27917
B         -0.36276       -0.84655       -1.21736
B         -2.32803       -2.68354       -0.42747
B         -3.31798       -1.45120        0.01326
B         -4.63823       -0.40724        0.09065
B         -4.87190       -1.99957        0.70949
B         -3.58946       -2.96564        0.66582
B         -2.17710       -3.57863        1.04723
B         -0.76499       -3.25330       -0.02476
B         -0.71167       -3.97282        1.38938
B          1.99108       -3.15943        0.15225
B          0.61517       -3.63878        0.76139
B          2.30525       -1.83292       -0.76004
B          3.43664       -2.62651        0.15087
B          3.79178       -1.10152       -0.34136
B          0.63866       -2.33234       -0.70953
B          1.67901        2.51058       -0.24913
B         -3.12336        0.14088       -0.68384
B          1.33708       -0.62457       -1.19043
B         -4.01233        2.69825        0.45020
B          5.53053        1.07298        0.68126
B          5.34099       -0.52669       -0.05233
B          4.98295       -2.10709        0.41490
B          6.24962       -1.52744        0.96683
B          6.41607       -0.07459        1.15554
B         -2.02447       -1.02538       -1.03315
B          0.25640        0.51582       -1.72364
B          0.17299        1.93175       -0.95009
B         -5.34033        2.02866        0.71744
B         -5.88055        0.60087        0.66366
B         -5.96939       -0.93931        0.79233
B         -0.95378       -2.33499       -1.37177
