45
isomer_3594.log	Energy: -113650.6814457
B          2.54493        1.72917       -0.46735
B          2.50177        3.32273        0.04255
B          1.14551        4.13327        0.12720
B         -0.29289        3.37366       -0.46943
B          1.13370        0.82237       -1.00180
B         -1.82160        0.85574       -0.97450
B         -1.67837        4.16709        0.27321
B          3.98192        0.85331       -0.19637
B         -1.72373        2.51539       -0.42996
B          3.87902        2.47904        0.29723
B         -0.24863        4.74094        0.36606
B         -3.03056        3.33175        0.27358
B         -3.14922        1.73432       -0.28871
B         -4.48667        0.84976        0.27096
B         -0.36772       -1.82397       -1.01176
B         -1.78373       -2.56790       -0.46196
B         -3.16695       -1.70348       -0.18817
B         -4.57821       -0.82105        0.09094
B         -4.40625       -2.43503        0.74311
B         -3.11448       -3.34445        0.24961
B         -1.74110       -4.16044        0.24330
B         -0.33166       -3.41314       -0.53815
B         -0.32728       -4.74824        0.35999
B          2.43597       -3.30272        0.06765
B          1.06058       -4.19351        0.10558
B          2.52689       -1.71382       -0.59105
B          3.81891       -2.53866        0.28208
B          3.94536       -0.89752       -0.10735
B          1.09835       -2.50032       -0.49737
B          1.18976        2.56479       -0.69243
B         -3.29748        0.00967       -0.62277
B          2.57406       -0.03213       -0.72402
B         -4.34363        2.50653        0.72974
B          5.16799        1.67036        0.76607
B          5.30499       -0.03826        0.39209
B          5.08493       -1.71524        0.83878
B          6.16254       -0.77452        1.51516
B          6.20714        0.73942        1.47450
B         -1.75886       -0.83139       -0.75568
B          1.13578       -0.82222       -1.09494
B         -0.34058        1.78337       -1.04436
B         -5.46507        1.60722        1.25611
B         -5.65611        0.06543        1.24858
B         -5.42497       -1.47775        1.29832
B         -0.36435        0.00041       -1.15427
