45
isomer_3596.log	Energy: -113675.8866850
B         -2.56284       -1.73070       -0.52970
B         -2.51315       -3.30401        0.03695
B         -1.15608       -4.14923        0.10913
B          0.26937       -3.40304       -0.53858
B         -1.16977       -0.85077       -1.06801
B          1.71813       -0.84343       -0.78870
B          1.64238       -4.16957        0.25871
B         -3.98405       -0.84578       -0.22470
B          1.72477       -2.55115       -0.43090
B         -3.86945       -2.48535        0.27599
B          0.22045       -4.74817        0.35303
B          3.00884       -3.34014        0.27882
B          3.12936       -1.73331       -0.22145
B          4.54683       -0.89356        0.14549
B          0.36887        1.82536       -1.11682
B          1.80169        2.53254       -0.48807
B          3.17333        1.68059       -0.26032
B          4.53226        0.79829        0.23701
B          4.40662        2.44470        0.74931
B          3.09162        3.28073        0.26614
B          1.74758        4.14427        0.24653
B          0.35054        3.38472       -0.51394
B          0.34100        4.74575        0.35256
B         -2.42816        3.33479        0.03941
B         -1.04813        4.15726        0.12289
B         -2.50951        1.75977       -0.48892
B         -3.81023        2.53706        0.29227
B         -3.95655        0.91015       -0.21579
B         -1.11962        2.59002       -0.76560
B         -1.18559       -2.57769       -0.78880
B          3.29369       -0.01582       -0.60949
B         -1.13000        0.84873       -1.04178
B          4.32689       -2.49919        0.77026
B         -5.10433       -1.65223        0.84540
B         -5.19530        0.04405        0.52309
B         -5.06088        1.73834        0.86446
B         -6.08467        0.81356        1.61260
B         -6.10499       -0.70720        1.60536
B          1.78601        0.83044       -0.91073
B         -2.60962        0.01593       -0.74597
B          0.31314       -1.83079       -1.08740
B          5.37370       -1.56918        1.33807
B          5.61999       -0.03294        1.30452
B          5.47295        1.51892        1.30138
B          0.34294       -0.00275       -1.09373
