45
isomer_3597.log	Energy: -111938.4765326
B          2.61794       -1.58407        0.36604
B          2.62034       -3.21658       -0.03712
B          1.21887       -4.05453       -0.28309
B         -0.24111       -3.24194        0.28768
B          1.15333       -0.70844        0.69327
B         -1.72047       -0.76251        0.79572
B         -1.62928       -4.02890       -0.40371
B          4.06904       -0.69720        0.29596
B         -1.63185       -2.35808        0.21199
B          4.02021       -2.38301       -0.18434
B         -0.20004       -4.67887       -0.56118
B         -3.06801       -3.19344       -0.39741
B         -3.10401       -1.58041        0.19207
B         -4.57325       -0.77259       -0.28418
B         -0.30642        1.80409        0.88961
B         -1.69838        2.49669        0.28174
B         -3.14868        1.67989        0.23891
B         -4.59544        0.84613       -0.26093
B         -4.45072        2.40928       -0.48475
B         -3.15712        3.30956       -0.30399
B         -1.74182        4.18395       -0.28572
B         -0.33234        3.41578        0.38332
B         -0.33098        4.87709       -0.42390
B          2.52861        3.47815        0.05906
B          1.10461        4.28412       -0.16330
B          2.57109        1.83529        0.41516
B          3.95073        2.68782       -0.11149
B          4.04591        0.99088        0.32021
B          1.13083        2.63738        0.59815
B          1.20027       -2.43024        0.52535
B         -3.20586       -0.05706        0.61114
B          1.13114        0.91083        0.71654
B         -4.38586       -2.32412       -0.55275
B          5.33020       -1.55297       -0.68466
B          5.30642        0.07450       -0.42731
B          5.28276        1.90869       -0.63492
B          6.45733        0.97873       -1.25772
B          6.47860       -0.57369       -1.28003
B         -1.74302        0.88319        0.81936
B          1.56173       -1.78118        1.92057
B         -0.25915       -1.64535        0.84006
B         -5.90535       -1.63096       -0.74770
B         -6.12426        0.08019       -0.78693
B         -5.95024        1.81263       -0.76885
B         -0.27628       -2.32874       -0.13592
