45
isomer_3598.log	Energy: -112281.7586442
B          2.63569       -1.65849        0.34984
B          2.62131       -3.29116       -0.05241
B          1.21166       -4.11218       -0.30854
B         -0.24262       -3.28155        0.25071
B          1.17940       -0.76492        0.66549
B         -1.69554       -0.78402        0.74619
B         -1.63498       -4.05203       -0.45074
B          4.09795       -0.78935        0.29027
B         -1.62190       -2.38091        0.16401
B          4.03228       -2.47475       -0.18947
B         -0.21259       -4.71942       -0.59703
B         -3.06345       -3.19915       -0.45580
B         -3.08431       -1.58543        0.13251
B         -4.53998       -0.76013       -0.35529
B         -0.25116        1.76528        0.84940
B         -1.62995        2.47435        0.23062
B         -3.08971        1.67520        0.17724
B         -4.54267        0.85876       -0.33308
B         -4.37728        2.41990       -0.55665
B         -3.07423        3.30451       -0.36658
B         -1.64859        4.16165       -0.33807
B         -0.25365        3.37684        0.34205
B         -0.22843        4.83752       -0.46593
B          2.61021        3.40425        0.03944
B          1.19784        4.22732       -0.19413
B          2.63003        1.76122        0.39675
B          4.02387        2.59659       -0.11990
B          4.09516        0.89890        0.31343
B          1.19828        2.58086        0.56839
B          1.20668       -2.48727        0.49886
B         -3.17081       -0.06069        0.54997
B          1.17671        0.85451        0.68770
B         -4.36943       -2.31399       -0.62159
B          5.35600       -1.66100       -0.68029
B          5.35005       -0.03320       -0.42402
B          5.35027        1.80101       -0.63280
B          6.51812        0.85646       -1.24618
B          6.52069       -0.69612       -1.26748
B         -1.69827        0.86185        0.76876
B         -0.13393        0.22493        2.01531
B         -0.24544       -1.68451        0.80207
B         -5.87887       -1.60254       -0.82843
B         -6.07666        0.11111       -0.87024
B         -5.88174        1.84132       -0.85179
B         -0.36600       -2.50155        1.36741
