45
isomer_0036.log	Energy: -113669.4740346
B         -2.58043        0.66659       -1.01239
B         -3.34492       -2.59018       -0.42936
B         -2.24077       -3.72376       -0.45104
B         -0.66466       -3.22129       -0.80966
B         -1.61024       -0.57831       -1.80379
B          1.28669       -1.06597       -1.09124
B          0.48133       -4.22766        0.05247
B         -3.77636        0.20557        0.08613
B          0.91525       -2.65954       -0.57095
B         -4.22470       -1.46981        0.27559
B         -1.01756       -4.58395       -0.07723
B          1.96108       -3.63946        0.28701
B          2.38358       -2.10308       -0.16727
B          3.75410       -1.41088        0.52204
B          0.40656        1.70327       -1.63395
B          1.56090        2.25343       -0.50091
B          2.92587        1.27821       -0.15944
B          4.19532        0.18002        0.24768
B          3.99321        1.81803        0.97769
B          2.85699        2.80864        0.45143
B          1.55119        3.79782        0.14379
B          0.62208        3.39301       -1.42081
B          0.26237        4.60538       -0.25243
B         -0.13413        2.89681        0.18471
B         -0.90418        4.07217       -1.05055
B         -0.99883        1.32504       -0.34332
B         -1.19840        2.15311        1.17289
B         -2.47960        1.30580        0.59054
B         -1.06305        2.66743       -1.75278
B         -1.95048       -2.19002       -1.36584
B          2.88727       -0.46799       -0.60096
B         -1.28988        1.09688       -2.10077
B          3.36740       -3.04530        0.93089
B         -4.68995       -0.54307        1.43976
B         -3.62365        0.75741        1.67691
B         -2.28238        1.69531        2.24456
B         -3.42832        1.13923        3.20871
B         -4.54152        0.18256        2.84696
B          1.58925        0.60164       -1.09414
B         -2.98858       -1.01416       -0.82361
B         -0.25223       -1.68236       -1.40927
B          4.54094       -2.33972        1.55520
B          4.93840       -0.81159        1.60353
B          4.87863        0.70804        1.59779
B         -0.07357        0.05672       -1.17455
