45
isomer_0360.log	Energy: -113675.8849625
B          2.51160       -1.75875        0.49068
B          2.43106       -3.33286       -0.04001
B          1.05190       -4.15679       -0.12285
B         -0.34729       -3.38591        0.51573
B          1.13181       -0.84851        1.04510
B         -1.78249       -0.83083        0.90634
B         -1.74328       -4.14503       -0.24760
B          3.95753       -0.90732        0.21579
B         -1.79889       -2.53345        0.48646
B          3.81258       -2.53483       -0.29162
B         -0.33643       -4.74601       -0.35263
B         -3.08790       -3.28256       -0.26750
B         -3.17147       -1.68245        0.25876
B         -4.53288       -0.80227       -0.23349
B         -0.31495        1.83117        1.08972
B         -1.72816        2.55045        0.43415
B         -3.13119        1.73089        0.22379
B         -4.54635        0.88985       -0.14962
B         -4.33005        2.49683       -0.76981
B         -3.01212        3.33732       -0.27769
B         -1.64657        4.16829       -0.25825
B         -0.27236        3.40236        0.53771
B         -0.22535        4.74799       -0.35376
B          2.50954        3.30468       -0.03780
B          1.15146        4.14926       -0.11089
B          2.56082        1.73213        0.52792
B          3.86701        2.48730       -0.27695
B          3.98269        0.84803        0.22387
B          1.18285        2.57807        0.78819
B          1.12205       -2.58939        0.76680
B         -3.29399        0.01452        0.60908
B          1.16849        0.85046        1.06807
B         -4.40355       -2.44666       -0.75098
B          5.06275       -1.73496       -0.86377
B          5.19563       -0.04040       -0.52315
B          5.10260        1.65567       -0.84661
B          6.10320        0.71150       -1.60713
B          6.08490       -0.80940       -1.61313
B         -1.72007        0.84293        0.79529
B          2.60968       -0.01478        0.74586
B         -0.36649       -1.82611        1.11618
B         -5.46876       -1.52112       -1.30413
B         -5.61927        0.03041       -1.30547
B         -5.37758        1.56773       -1.33768
B         -0.34270        0.00258        1.09702
