45
isomer_3600.log	Energy: -113365.7918518
B          1.76391       -1.93890        0.52738
B          1.67330       -3.60888        0.06417
B          0.26345       -4.34828       -0.12451
B         -1.14296       -3.69873        0.68042
B          1.44485       -0.47070        1.15928
B         -1.66634       -0.77623        0.84606
B         -2.52027       -3.99920       -0.39851
B          3.41222       -1.23828        0.21517
B         -2.29365       -2.47425        0.42169
B          2.98798       -2.79558       -0.28563
B         -1.19883       -4.73361       -0.52472
B         -3.66627       -2.87767       -0.39616
B         -3.36365       -1.32326        0.12524
B         -4.47192       -0.14303       -0.25135
B          0.14103        1.76675        1.07293
B         -1.12485        2.59878        0.46594
B         -2.63466        2.04335        0.16610
B         -4.19945        1.46768       -0.14466
B         -3.78750        3.07747       -0.61126
B         -2.36882        3.62241       -0.18863
B         -0.94063        4.28715       -0.27984
B          0.33493        3.40089        0.42839
B          0.49583        4.73927       -0.44596
B          3.19008        3.14554       -0.06827
B          1.84668        4.04996       -0.17460
B          3.12711        1.69412        0.74970
B          4.37050        2.11051       -0.34246
B          4.20819        0.47255        0.27429
B          1.77410        2.60627        0.71329
B          0.39528       -2.96677        0.84030
B         -2.97979        0.35482        0.48431
B          1.62944        1.09273        1.40619
B         -4.76303       -1.73376       -0.81993
B          4.20482       -2.23173       -1.05469
B          4.74165       -0.66065       -0.79620
B          5.29624        0.97744       -0.95754
B          5.90660       -0.20530       -1.81508
B          5.42291       -1.62958       -1.87200
B         -1.32350        0.90675        0.75072
B          2.94396        0.09011        1.22831
B         -1.05115       -2.18003        1.42564
B         -5.64279       -0.59743       -1.25222
B         -5.52846        0.94253       -1.16085
B         -5.06252        2.39435       -1.11277
B          0.15599       -1.20958        1.03232
