45
isomer_3601.log	Energy: -113434.6960342
B         -2.66803        1.58121        0.35951
B         -2.59392        3.26299       -0.08298
B         -1.21416        4.10253       -0.17975
B          0.24299        3.26499        0.20226
B         -1.21036        0.69483        0.59646
B          1.69291        0.75611        1.08368
B          1.62496        4.18673       -0.11660
B         -4.10050        0.87494        0.40902
B          1.68630        2.49231        0.51885
B         -3.99343        2.41829       -0.25608
B          0.20975        4.77131       -0.26887
B          3.01048        3.29939       -0.11493
B          3.12159        1.75428        0.40453
B          4.40448        0.83261       -0.26148
B          0.35386       -1.73419        0.93681
B          1.69970       -2.50569        0.27418
B          3.07104       -1.69282       -0.06126
B          4.53970       -0.82563       -0.01444
B          4.42216       -2.47023       -0.71054
B          3.04956       -3.30264       -0.37342
B          1.63961       -4.14550       -0.34748
B          0.30835       -3.37737        0.49259
B          0.22622       -4.72040       -0.36752
B         -2.51939       -3.23829        0.05856
B         -1.16688       -4.11666       -0.04546
B         -2.60361       -1.63197        0.67744
B         -3.87865       -2.36304       -0.14679
B         -4.01983       -0.79990        0.41913
B         -1.21194       -2.55763        0.68078
B         -1.27420        2.45451        0.33079
B          3.13155       -0.00862        0.47116
B         -1.13056       -0.83915        1.03666
B          4.42624        2.53038       -0.45737
B         -5.28716        1.67195       -0.69305
B         -5.31278       -0.00481       -0.33730
B         -5.15267       -1.65670       -0.67827
B         -6.30388       -0.76789       -1.33189
B         -6.39179        0.71914       -1.29627
B          1.56564       -0.74883        0.09535
B          0.17753        0.04292       -0.15486
B          0.25486        1.63967        0.63011
B          5.58981        1.64298       -0.90543
B          5.74371        0.07515       -0.98090
B          5.51375       -1.48374       -1.07608
B          0.32701       -0.07754        1.58112
