45
isomer_3603.log	Energy: -111817.2282337
B         -2.58319       -1.70062       -0.48996
B         -2.57209       -3.33582       -0.09805
B         -1.16429       -4.16013        0.15773
B          0.29288       -3.32769       -0.39119
B         -1.12477       -0.80680       -0.79489
B          1.75041       -0.82878       -0.86577
B          1.68190       -4.10425        0.31016
B         -4.04463       -0.83015       -0.42993
B          1.67290       -2.42925       -0.29401
B         -3.98258       -2.51863        0.03932
B          0.25824       -4.77087        0.44729
B          3.11134       -3.25312        0.32558
B          3.13611       -1.63572       -0.25240
B          4.59104       -0.81525        0.24567
B          0.30936        1.72283       -0.95778
B          1.68682        2.42633       -0.32975
B          3.14546        1.62512       -0.27640
B          4.59568        0.80374        0.23375
B          4.43134        2.36362        0.46665
B          3.12999        3.25096        0.27771
B          1.70545        4.10996        0.24971
B          0.31197        3.33114       -0.44020
B          0.28565        4.78668        0.37695
B         -2.55289        3.36002       -0.14733
B         -1.14038        4.17991        0.09635
B         -2.57338        1.71931       -0.51513
B         -3.96803        2.55304        0.00199
B         -4.03979        0.85821       -0.44236
B         -1.14009        2.53832       -0.67661
B         -1.15463       -2.53013       -0.63931
B          3.22582       -0.10846       -0.65986
B         -1.12012        0.81275       -0.80681
B          4.41776       -2.37057        0.50150
B         -5.30705       -1.70645        0.53072
B         -5.29832       -0.07706        0.28481
B         -5.29712        1.75578        0.50524
B         -6.46819        0.80874        1.10856
B         -6.47265       -0.74393        1.11999
B          1.75513        0.81720       -0.87788
B         -1.34734        0.77072        1.89164
B          0.29946       -1.72719       -0.93239
B          5.92730       -1.66224        0.71807
B          6.12694        0.05088        0.77145
B          5.93410        1.78140        0.76331
B         -0.43152       -0.98351       -0.10616
