45
isomer_3605.log	Energy: -113397.2380964
B         -2.67679       -1.38504       -0.53659
B         -2.59992       -3.07484        0.12284
B         -1.50799       -3.97626        0.82948
B          0.12443       -3.23797       -0.57681
B         -1.26425       -0.64728       -1.09810
B          1.72801       -0.80889       -0.75105
B          1.43682       -4.02858        0.29146
B         -4.04798       -0.60525       -0.31315
B          1.63917       -2.51615       -0.47248
B         -3.98363       -2.15808        0.21951
B         -0.06202       -4.43963        0.56139
B          2.87149       -3.31940        0.30725
B          3.10710       -1.74237       -0.25286
B          4.58675       -0.95688       -0.01543
B          0.42895        1.82546       -1.11168
B          1.89196        2.55062       -0.43401
B          3.24041        1.66626       -0.20753
B          4.59637        0.71491        0.21440
B          4.52461        2.37612        0.74540
B          3.21390        3.24295        0.32886
B          1.83582        4.08039        0.34395
B          0.43797        3.41185       -0.47305
B          0.42177        4.66459        0.50538
B         -2.39593        3.44109       -0.03946
B         -1.00182        4.15178        0.16184
B         -2.51169        1.80084       -0.56781
B         -3.78153        2.63307        0.21280
B         -3.94782        1.05468       -0.27733
B         -1.11027        2.64457       -0.69084
B         -1.34963       -2.28712       -0.82805
B          3.31190       -0.02144       -0.63458
B         -1.15477        0.96970       -1.08244
B          4.26278       -2.54210        0.68673
B         -5.27040       -1.42576        0.71844
B         -5.25160        0.27289        0.44889
B         -5.05208        1.92403        0.80045
B         -6.19981        1.03325        1.47672
B         -6.29978       -0.46232        1.42432
B          1.87569        0.91203       -0.96240
B         -1.30815       -3.95630       -0.73241
B          0.25733       -1.54000       -0.90511
B          5.36353       -1.64488        1.21385
B          5.70960       -0.14202        1.18595
B          5.60155        1.41917        1.22070
B          0.30995        0.12832       -1.05744
