45
isomer_3607.log	Energy: -113458.7822548
B         -2.54892        1.66046        0.63899
B         -2.53825        3.38181        0.06296
B         -1.19176        4.14877       -0.00497
B          0.27389        3.44060        0.67291
B         -1.20031        0.93783        1.07278
B          1.74684        0.92475        0.98472
B          1.64472        4.16218       -0.18738
B         -3.90296        0.91011        0.15133
B          1.70685        2.57255        0.47998
B         -3.79713        2.51057       -0.20085
B          0.22042        4.70883       -0.30094
B          3.01303        3.32580       -0.26521
B          3.08525        1.74987        0.22287
B          4.35113        0.79005       -0.41513
B          0.28806       -1.72675        1.45735
B          1.41060       -2.41725        0.07580
B          2.99775       -1.71742        0.10640
B          4.45539       -0.86659       -0.12230
B          4.20419       -2.50499       -0.76645
B          2.87185       -3.28981       -0.28737
B          1.55870       -4.14605        0.01922
B          0.23100       -3.33227        0.95914
B          0.18414       -4.72459        0.10965
B         -2.51812       -3.31792       -0.04736
B         -1.22212       -4.12966        0.20466
B         -2.56082       -1.61024        0.42568
B         -3.79793       -2.45941       -0.31832
B         -3.88685       -0.85681        0.09049
B         -1.07834       -2.40942        0.25327
B         -1.20177        2.57836        0.75455
B          3.14423        0.00281        0.48653
B         -1.21675       -0.73540        0.82009
B          4.32807        2.46790       -0.77172
B         -5.09031        1.68876       -0.77490
B         -5.14443        0.03238       -0.46133
B         -5.10751       -1.61142       -0.88382
B         -6.12069       -0.69947       -1.57119
B         -6.12124        0.79718       -1.52866
B          1.57334       -0.74087        0.47910
B          0.09749       -1.25055       -0.23848
B          0.32603        1.81832        1.22011
B          5.41969        1.53806       -1.29324
B          5.56272       -0.03943       -1.28819
B          5.30164       -1.56406       -1.27870
B          0.24919        0.00242        1.25794
