45
isomer_3608.log	Energy: -113287.0281716
B         -2.71290       -1.58608       -0.55450
B         -2.72777       -3.23766       -0.01340
B         -1.29314       -3.97713        0.19850
B          0.14061       -3.25786       -0.36427
B         -1.26014       -0.76956       -0.95405
B          1.65267       -0.80961       -1.05271
B          1.49365       -4.01025        0.43071
B         -4.06943       -0.73094       -0.41364
B          1.58878       -2.40364       -0.30787
B         -4.03188       -2.37786        0.09806
B          0.08539       -4.58307        0.55280
B          2.91587       -3.18761        0.39866
B          3.05056       -1.68607       -0.26963
B          4.48123       -0.88834        0.20343
B          0.37554        1.72306       -1.07628
B          1.81389        2.47130       -0.32535
B          3.18919        1.64417       -0.29722
B          4.52477        0.79786        0.16971
B          4.59423        2.42236        0.57833
B          3.15016        3.19129        0.34289
B          1.74254        4.02834        0.41047
B          0.33941        3.29924       -0.34299
B          0.30959        4.59730        0.57444
B         -2.50566        3.27651        0.03057
B         -1.06174        3.98919        0.25382
B         -2.59088        1.71084       -0.57268
B         -3.89376        2.53989        0.15698
B         -4.03697        0.96283       -0.39100
B         -1.13030        2.44487       -0.62142
B         -1.30418       -2.42186       -0.64207
B          3.20276       -0.04711       -0.68117
B         -1.28119        0.81333       -1.05083
B          4.39883       -2.52195        0.61987
B         -5.30417       -1.53385        0.62591
B         -5.21832        0.10294        0.36797
B         -5.20928        1.76095        0.65622
B         -6.29013        0.88828        1.32279
B         -6.32754       -0.62691        1.31424
B          1.74482        0.85396       -0.99659
B         -0.00154        0.34602       -0.09193
B          0.28087       -1.68301       -1.24348
B          5.66829       -1.67887        0.89079
B          5.87030       -0.10962        0.85771
B          5.77340        1.48879        0.87171
B         -0.13642       -1.22447        0.33652
