45
isomer_3609.log	Energy: -113455.7917473
B          2.23618       -1.18372        0.47359
B          2.22005       -2.68726       -0.76878
B          0.89136       -3.42611       -1.15996
B         -0.50010       -3.35009       -0.03963
B          0.86606       -1.16467        1.38072
B         -1.83626       -0.88796        1.25528
B         -1.93717       -3.60339       -1.01996
B          3.84609       -0.62686        0.36751
B         -1.92990       -2.46742        0.28452
B          3.56448       -2.05522       -0.40129
B         -0.53864       -3.89631       -1.53012
B         -3.31110       -2.94362       -0.50277
B         -3.24016       -1.50892        0.30977
B         -4.53545       -0.47957       -0.06918
B         -0.06221        1.48534        0.62095
B         -1.46192        2.42290        0.16752
B         -2.97793        1.88698        0.44667
B         -4.53588        1.17434        0.26273
B         -4.22143        2.76101       -0.40834
B         -2.73776        3.36880       -0.30463
B         -1.23283        3.95050       -0.59276
B          0.12661        3.04261        0.04746
B          0.20809        4.23606       -0.98240
B          2.84939        2.63307       -0.63958
B          1.56611        3.47042       -0.77818
B          2.87040        0.94097        0.34962
B          4.17936        2.03663       -0.30299
B          4.43448        0.93019        0.81835
B          1.47596        1.87993       -0.07913
B          0.97242       -2.40498        0.17087
B         -3.21059        0.16621        0.76651
B          1.32610        0.36173        0.60251
B         -4.69716       -2.08063       -0.56940
B          5.06229       -1.63775       -0.45434
B          5.53116       -0.19028        0.30296
B          5.72380        1.43169       -0.13742
B          6.75743        0.45523       -0.65704
B          6.39372       -0.96202       -0.85411
B         -1.63960        0.81962        0.75559
B         -0.24973        0.15505        1.56443
B         -0.49150       -2.24383        1.19424
B         -5.82609       -1.10018       -0.77666
B         -5.84530        0.47004       -0.71575
B         -5.47220        1.96877       -0.75877
B         -0.61067       -1.14733        2.36140
