45
isomer_3610.log	Energy: -113478.3435899
B         -2.52497        1.65337        0.56559
B         -2.48862        3.31470       -0.06206
B         -1.11372        4.09724       -0.27654
B          0.31986        3.38668        0.35486
B         -1.15881        0.90494        1.02207
B          1.77945        0.89580        0.94592
B          1.70195        4.14763       -0.41215
B         -3.94290        0.92720        0.29079
B          1.75974        2.55485        0.44540
B         -3.83097        2.50518       -0.11290
B          0.29723        4.69643       -0.56981
B          3.07062        3.29202       -0.35436
B          3.15271        1.75152        0.22748
B          4.49695        0.79155       -0.21519
B          0.18225       -1.60334        0.45420
B          1.65912       -2.47524        0.37008
B          3.11547       -1.70174        0.39336
B          4.57883       -0.84626        0.15672
B          4.38610       -2.46317       -0.45711
B          3.02167       -3.30658       -0.07437
B          1.64968       -4.12730       -0.13472
B          0.13552       -3.32207        0.57908
B          0.29877       -4.53633       -0.55277
B         -2.48318       -3.11641       -0.43007
B         -1.12246       -3.87382       -0.49368
B         -2.57458       -1.70403        0.62361
B         -3.84316       -2.30058       -0.38756
B         -3.94412       -0.81468        0.26281
B         -1.33082       -2.74588        1.06582
B         -1.16575        2.60479        0.63721
B          3.25906        0.05216        0.67356
B         -1.28075       -0.72771        0.72699
B          4.42329        2.45409       -0.72640
B         -5.22149        1.72675       -0.51202
B         -5.28829        0.07844       -0.10152
B         -5.22483       -1.51915       -0.64947
B         -6.32200       -0.59990       -1.21779
B         -6.31809        0.87544       -1.14375
B          1.67140       -0.75425        0.73197
B         -1.11129       -2.04798       -0.53630
B          0.34774        1.86552        1.04482
B          5.56161        1.52068       -1.13937
B          5.72801       -0.02475       -1.06285
B          5.44645       -1.54415       -1.01305
B          0.24733        0.05835        1.06346
