45
isomer_3612.log	Energy: -113162.2985192
B         -2.71696        1.67714        0.38584
B         -2.71187        3.34300        0.05114
B         -1.34062        4.12178       -0.16464
B          0.14631        3.35404        0.35641
B         -1.35289        0.84272        0.62975
B          1.63047        0.85898        0.83982
B          1.52814        4.12741       -0.38573
B         -4.05217        0.78044        0.34406
B          1.56809        2.47900        0.23209
B         -4.09381        2.44922       -0.13734
B          0.09484        4.69946       -0.48967
B          2.90190        3.31023       -0.37796
B          3.00840        1.75026        0.18192
B          4.42797        0.94577       -0.25415
B          0.26211       -1.53564        1.17830
B          1.83966       -2.42672        0.20450
B          3.15370       -1.58707        0.21574
B          4.48876       -0.69809       -0.21290
B          4.54629       -2.38446       -0.58182
B          3.16236       -3.20884       -0.34261
B          1.76826       -4.06815       -0.33434
B          0.36751       -3.33339        0.30759
B          0.34580       -4.70773       -0.45025
B         -2.45354       -3.33322       -0.00385
B         -1.09631       -4.11432       -0.19774
B         -2.54062       -1.64861        0.44113
B         -3.86136       -2.49958       -0.17620
B         -3.98073       -0.91303        0.33195
B         -1.15136       -2.53149        0.56349
B         -1.31520        2.56347        0.55665
B          3.17161        0.13307        0.58621
B         -1.08542       -0.77486        0.80139
B          4.34916        2.62108       -0.61777
B         -5.32335        1.62881       -0.62390
B         -5.25789       -0.05439       -0.39245
B         -5.19012       -1.76569       -0.65592
B         -6.37048       -0.85765       -1.25483
B         -6.44318        0.65017       -1.24339
B          1.72456       -0.78657        0.84364
B         -0.09902        0.20085        1.63362
B          0.26455        1.71554        0.89928
B          5.64213        1.81089       -0.83047
B          5.88542        0.19392       -0.84358
B          5.76894       -1.44113       -0.84361
B          0.38996       -1.58662       -0.16943
