45
isomer_3613.log	Energy: -113396.5770014
B         -2.52713       -1.62036       -0.20057
B         -2.38083       -3.23674        0.37373
B         -0.99584       -4.02325        0.48019
B          0.38418       -3.26032       -0.27991
B         -1.09038       -0.71727       -0.52008
B          1.70792       -0.74009       -1.16314
B          1.80055       -4.06563        0.24193
B         -3.99442       -1.00239       -0.29788
B          1.80866       -2.45034       -0.61500
B         -3.81160       -2.42819        0.54309
B          0.43125       -4.61672        0.56929
B          3.13576       -3.16498        0.07520
B          3.20239       -1.66483       -0.52639
B          4.47460       -0.68056        0.11797
B          0.23856        1.71795       -0.86799
B          1.62530        2.44534       -0.10532
B          3.03995        1.79478       -0.10401
B          4.54177        0.98621       -0.03881
B          4.28642        2.53265        0.79289
B          2.88169        3.27520        0.52333
B          1.42105        4.06847        0.58307
B          0.15547        3.32717       -0.21620
B          0.00314        4.62279        0.64740
B         -2.65758        3.12062       -0.03658
B         -1.35791        4.01560        0.22720
B         -2.67100        1.52197       -0.72611
B         -4.04743        2.24637       -0.05950
B         -4.04987        0.65180       -0.49211
B         -1.32360        2.48957       -0.63777
B         -1.12375       -2.45591       -0.25969
B          3.22387        0.11588       -0.69033
B         -1.16401        0.79694       -1.16942
B          4.51484       -2.35863        0.41033
B         -5.18594       -1.75311        0.82495
B         -5.34670       -0.15318        0.22260
B         -5.33413        1.52272        0.41808
B         -6.51039        0.61554        0.99242
B         -6.46232       -0.86971        1.14701
B          1.53735        0.79913       -0.56409
B          0.26245        0.03557        0.00868
B          0.32679       -1.70991       -0.95083
B          5.64389       -1.46518        0.86855
B          5.70390        0.08658        1.02558
B          5.42082        1.61472        1.13363
B          0.26225        0.03372       -1.70538
