45
isomer_3614.log	Energy: -113419.5044542
B         -2.39977       -1.69663       -0.36754
B         -2.60384       -3.26759        0.75733
B         -1.22288       -3.99405        0.85422
B          0.04780       -3.25596       -0.36982
B         -1.21290       -0.71743       -0.98144
B          1.74182       -0.77462       -1.01029
B          1.53693       -3.90497        0.33274
B         -3.78966       -0.78397       -0.10462
B          1.64464       -2.46359       -0.52332
B         -3.74426       -2.26682        0.52984
B          0.21682       -4.39476        0.81333
B          2.95503       -3.21600        0.15055
B          3.09987       -1.67988       -0.37102
B          4.48165       -0.83493        0.11667
B          0.33902        1.87592       -0.96460
B          1.75672        2.53571       -0.29118
B          3.16787        1.72425       -0.19525
B          4.58873        0.83313       -0.00191
B          4.40694        2.44696        0.73672
B          3.08559        3.31001        0.37357
B          1.70237        4.12906        0.45660
B          0.31122        3.40955       -0.30334
B          0.28918        4.73218        0.57521
B         -2.49498        3.44267        0.01881
B         -1.13164        4.17334        0.24066
B         -2.51238        1.76232       -0.53177
B         -3.82916        2.61262        0.12720
B         -3.84968        0.96930       -0.19754
B         -1.16930        2.64042       -0.68090
B         -1.71870       -3.31805       -0.59979
B          3.29233        0.00969       -0.71687
B         -1.20133        0.91671       -1.01069
B          4.35574       -2.47543        0.58525
B         -5.16095       -1.44617        0.72926
B         -5.18723        0.13373        0.15975
B         -5.18560        1.79964        0.51061
B         -6.29098        0.92301        1.12032
B         -6.27886       -0.55891        1.23566
B          1.73835        0.89756       -0.76066
B         -0.99002       -2.40041       -1.59721
B          0.34511       -1.64904       -1.32259
B          5.49821       -1.62450        1.06854
B          5.67209       -0.07453        1.12613
B          5.44246        1.44770        1.20921
B          0.25761        0.07275       -0.92584
