45
isomer_3615.log	Energy: -113660.4640071
B          2.55337        1.76728       -0.56708
B          2.47804        3.33147       -0.01508
B          1.09175        4.15277        0.11121
B         -0.32392        3.37544       -0.47648
B          1.13204        0.83489       -1.05780
B         -1.80592        0.86456       -0.88274
B         -1.70401        4.14752        0.30009
B          3.95092        0.86596       -0.18902
B         -1.78378        2.54928       -0.48051
B          3.87319        2.51708        0.22099
B         -0.29274        4.74883        0.37063
B         -3.06481        3.30785        0.33544
B         -3.14814        1.71594       -0.16740
B         -4.55055        0.82822        0.21073
B         -0.34428       -1.77004       -0.88867
B         -1.75266       -2.54974       -0.38456
B         -3.18107       -1.71432       -0.26398
B         -4.59309       -0.87197        0.07469
B         -4.38820       -2.48248        0.69468
B         -3.06857       -3.33863        0.21458
B         -1.69230       -4.18196        0.16864
B         -0.29757       -3.42410       -0.61988
B         -0.26496       -4.77066        0.27887
B          2.48812       -3.32942        0.15016
B          1.12569       -4.18813        0.10837
B          2.56234       -1.76593       -0.46302
B          3.86447       -2.51241        0.33026
B          3.96988       -0.86645       -0.19055
B          1.14432       -2.55892       -0.59982
B          1.14067        2.57505       -0.74491
B         -3.29181        0.01793       -0.60442
B          1.14615       -0.85967       -0.79921
B         -4.40448        2.48040        0.76674
B          5.13067        1.71465        0.76931
B          5.26826        0.00797        0.42417
B          5.14585       -1.68048        0.80581
B          6.19219       -0.73661        1.50701
B          6.17357        0.78782        1.49600
B         -1.74771       -0.80831       -0.77648
B          2.56939        0.00966       -0.71378
B         -0.36304        1.80844       -1.08092
B         -5.49965        1.54784        1.26449
B         -5.66159       -0.00308        1.24068
B         -5.42355       -1.54292        1.27138
B         -0.35246       -0.00057       -1.14860
