45
isomer_3616.log	Energy: -113420.8433542
B          2.52062       -1.71747        0.25970
B          2.38882       -3.34056       -0.30424
B          0.97092       -4.12927       -0.34551
B         -0.40270       -3.28663        0.22838
B          1.18593       -0.79435        0.70858
B         -1.68730       -0.69078        1.09996
B         -1.84899       -4.11272       -0.11479
B          3.89190       -0.96795       -0.00594
B         -1.82581       -2.43942        0.56688
B          3.83129       -2.58437       -0.35931
B         -0.47401       -4.73896       -0.39351
B         -3.19360       -3.19355        0.01740
B         -3.17674       -1.57833        0.49641
B         -4.52078       -0.68695       -0.01582
B         -0.24291        1.77913        0.93938
B         -1.53540        2.59587        0.17095
B         -2.94467        1.73961       -0.08765
B         -4.46381        0.99274       -0.03190
B         -4.22420        2.52870       -0.86572
B         -2.85005        3.36526       -0.49843
B         -1.46137        4.17892       -0.41572
B         -0.15372        3.44109        0.57960
B         -0.00762        4.66253       -0.47179
B          2.68548        3.21281        0.05700
B          1.35136        4.09393       -0.06228
B          2.65804        1.58774        0.70269
B          3.94535        2.27383       -0.12075
B          3.97543        0.70991        0.30087
B          1.29465        2.54105        0.62668
B          1.12368       -2.54486        0.35953
B         -3.14332        0.11674        0.58813
B          1.19889        0.79565        0.97040
B         -4.55567       -2.39023       -0.34319
B          5.19057       -1.79446       -0.76777
B          5.32888       -0.19194       -0.11194
B          5.36556        1.46544       -0.41638
B          6.47134        0.61553       -1.00478
B          6.30239       -0.85553       -1.25987
B         -1.48847        0.81818        0.14074
B         -0.18240       -0.14125       -0.11045
B         -0.32142       -1.68082        0.75719
B         -5.63168       -1.46982       -0.86080
B         -5.69057        0.08075       -1.00059
B         -5.36388        1.60183       -1.20575
B         -0.29002        0.13294        1.60440
