45
isomer_3618.log	Energy: -113412.4112785
B         -2.42532        1.78662        0.68738
B         -2.39391        3.53348        0.05657
B         -1.02293        4.25716       -0.13660
B          0.40954        3.47729        0.44876
B         -1.11428        1.02601        1.16599
B          1.72716        0.87653        0.72850
B          1.80635        4.19723       -0.33707
B         -3.73620        1.05222        0.19306
B          1.80571        2.57650        0.44676
B         -3.65747        2.69772       -0.12815
B          0.40643        4.80401       -0.46335
B          3.12319        3.27988       -0.38707
B          3.15458        1.69437        0.13590
B          4.55207        0.73423       -0.14134
B          0.23558       -1.67685        1.13797
B          1.53305       -2.51389        0.63736
B          3.00221       -1.75819        0.35088
B          4.34494       -0.92374       -0.29833
B          4.20306       -2.59895       -0.63141
B          2.81759       -3.30186       -0.12181
B          1.41283       -4.06201       -0.11678
B         -0.07722       -3.23238        0.42641
B          0.07561       -4.60400       -0.47370
B         -2.69190       -3.34886       -0.62586
B         -1.34081       -4.18318       -0.65564
B         -2.47722       -1.71999        0.49052
B         -3.73165       -2.23204       -0.59414
B         -3.68030       -0.75629       -0.01034
B         -1.80134       -3.34548        0.67498
B         -1.08308        2.68783        0.71138
B          3.19539       -0.04215        0.56463
B         -1.32887       -0.58470        1.13914
B          4.41776        2.37248       -0.79792
B         -4.97033        1.89856       -0.64189
B         -4.95360        0.24223       -0.43402
B         -5.01851       -1.36053       -0.96594
B         -6.06787       -0.42349       -1.48207
B         -6.04472        1.06376       -1.36031
B          1.65059       -0.78060        1.00315
B         -1.21838       -2.20481        1.55813
B          0.40280        1.90870        1.02936
B          5.41296        1.35593       -1.31940
B          5.55424       -0.20579       -1.28326
B          5.30778       -1.75561       -1.23878
B          0.28448        0.09265        1.05831
