45
isomer_3619.log	Energy: -113441.8905250
B         -2.46459       -1.74609       -0.39501
B         -2.63648       -3.19488        0.80554
B         -1.35671       -4.10066        0.81946
B         -0.05933       -3.24301       -0.39354
B         -1.27945       -0.63920       -1.02975
B          1.68877       -0.78136       -1.00954
B          1.40402       -3.97511        0.24000
B         -3.68858       -0.66095       -0.00541
B          1.56628       -2.48239       -0.57101
B         -3.71752       -2.14004        0.66375
B          0.07767       -4.49712        0.66650
B          2.84900       -3.26199        0.15995
B          3.03545       -1.73089       -0.32329
B          4.41761       -0.88838        0.21055
B          0.39053        1.88253       -0.97129
B          1.83221        2.55585       -0.44502
B          3.20158        1.68958       -0.14582
B          4.64079        0.74913       -0.04614
B          4.48325        2.37955        0.70405
B          3.17161        3.25646        0.37194
B          1.80556        4.13367        0.44016
B          0.42135        3.42510       -0.33096
B          0.42244        4.74769        0.57193
B         -2.39744        3.43946        0.08961
B         -1.00811        4.20754        0.27472
B         -2.46681        1.81007       -0.49789
B         -3.81803        2.67554        0.12514
B         -3.74823        1.00408       -0.02889
B         -1.10437        2.68007       -0.58321
B         -1.80312       -3.42552       -0.58546
B          3.25564       -0.01300       -0.65313
B         -1.15133        0.95449       -1.04890
B          4.28262       -2.54733        0.58627
B         -5.14834       -1.33141        0.71349
B         -5.18453        0.21250        0.08949
B         -5.14190        1.91603        0.49293
B         -6.23925        0.99113        1.08294
B         -6.35185       -0.49224        1.04808
B          1.76999        0.86813       -0.71794
B         -1.15888       -2.29194       -1.42172
B          0.28562       -1.65413       -1.30650
B          5.46015       -1.73458        1.07378
B          5.69993       -0.19007        1.10150
B          5.51288        1.34877        1.15047
B          0.24994        0.09491       -0.97182
