45
isomer_3620.log	Energy: -113383.8198205
B         -2.47061        1.76287        0.61709
B         -2.41046        3.46164       -0.09281
B         -1.03279        4.20912       -0.27480
B          0.40899        3.43078        0.31275
B         -1.13418        1.03341        1.10548
B          1.71465        0.84514        0.74116
B          1.80526        4.15290       -0.42914
B         -3.82754        1.00986        0.21152
B          1.82181        2.55579        0.49495
B         -3.69657        2.61070       -0.21662
B          0.41361        4.74300       -0.59088
B          3.15430        3.27721       -0.32782
B          3.17835        1.69645        0.20765
B          4.59063        0.74785        0.01114
B          0.13081       -1.80442        1.11075
B          1.58258       -2.53306        0.58351
B          3.02070       -1.74329        0.35380
B          4.38000       -0.87970       -0.24844
B          4.28463       -2.53931       -0.61754
B          2.88629       -3.26724       -0.19455
B          1.50039       -4.06435       -0.39131
B          0.10403       -3.22304        0.07761
B          0.15246       -4.58656       -0.77864
B         -2.62242       -3.22659       -0.57274
B         -1.28855       -4.01279       -0.70229
B         -2.59778       -1.68554        0.68766
B         -3.78731       -2.26412       -0.44698
B         -3.85121       -0.76469        0.20385
B         -1.49869       -2.99277        0.60081
B         -1.09892        2.65243        0.50617
B          3.21360       -0.03887        0.61634
B         -1.34072       -0.56894        1.25920
B          4.45679        2.38459       -0.67269
B         -5.03945        1.81871       -0.68268
B         -5.13316        0.17711       -0.29097
B         -5.12078       -1.42504       -0.78483
B         -6.17451       -0.51710       -1.39864
B         -6.11256        0.95713       -1.37413
B          1.61557       -0.81157        0.97596
B         -1.40740       -1.99871        1.81640
B          0.37974        1.88744        0.94972
B          5.48787        1.36990       -1.16278
B          5.67170       -0.16226       -1.12940
B          5.44686       -1.71595       -1.10629
B          0.24398        0.04189        1.04349
