45
isomer_3621.log	Energy: -112821.5402200
B         -2.62768        1.68707        0.36846
B         -2.60802        3.30770       -0.00868
B         -1.20314        4.13348       -0.22485
B          0.22205        3.34401        0.30116
B         -1.22582        0.82405        0.65993
B          1.69923        0.83090        0.76955
B          1.60048        4.12144       -0.34970
B         -4.00348        0.84128        0.30138
B          1.63121        2.47076        0.20923
B         -3.92402        2.48415       -0.14740
B          0.17676        4.69856       -0.47846
B          3.02417        3.29489       -0.36743
B          3.08116        1.67657        0.17907
B          4.54882        0.84639       -0.29008
B          0.29392       -1.77497        0.92349
B          1.68673       -2.45178        0.20268
B          3.10708       -1.63118        0.16839
B          4.54342       -0.78137       -0.29454
B          4.43572       -2.37321       -0.59020
B          3.03860       -3.26045       -0.39815
B          1.59805       -4.11489       -0.38004
B          0.23366       -3.33865        0.33404
B          0.17902       -4.69216       -0.47144
B         -2.62401       -3.28224        0.00531
B         -1.22370       -4.12266       -0.21437
B         -2.66669       -1.62510        0.37946
B         -3.97403       -2.43063       -0.14428
B         -4.02250       -0.82712        0.30313
B         -1.24800       -2.50831        0.54606
B         -1.22963        2.53041        0.52443
B          3.17560        0.10711        0.56762
B         -1.28605       -0.69501        0.66824
B          4.43798        2.45442       -0.57264
B         -5.22830        1.68725       -0.63368
B         -5.21673        0.07944       -0.39447
B         -5.23880       -1.62621       -0.61828
B         -6.31168       -0.74696       -1.19764
B         -6.34776        0.76346       -1.22061
B          1.72262       -0.78071        0.77004
B         -0.09423        0.09732        2.27372
B          0.20737        1.72186        0.80271
B          5.78453        1.61172       -0.72276
B          5.95058        0.01817       -0.76998
B          5.77375       -1.57358       -0.78616
B          0.15176       -0.99521        0.01772
