45
isomer_3622.log	Energy: -112974.0501244
B          2.65831       -1.57976        0.32678
B          2.64020       -3.23054       -0.08209
B          1.24275       -4.07960       -0.34306
B         -0.24120       -3.27868        0.20133
B          1.21704       -0.69299        0.63775
B         -1.69973       -0.74385        0.74784
B         -1.62785       -4.04347       -0.48083
B          4.03965       -0.73102        0.28114
B         -1.64916       -2.38714        0.13380
B          3.99427       -2.38074       -0.21021
B         -0.17460       -4.66128       -0.62212
B         -3.04352       -3.19957       -0.46836
B         -3.09131       -1.59153        0.12161
B         -4.54593       -0.75165       -0.34314
B         -0.26184        1.77447        0.87525
B         -1.65145        2.49579        0.26555
B         -3.09427        1.70052        0.20452
B         -4.54737        0.87923       -0.30301
B         -4.40745        2.45490       -0.53393
B         -3.06005        3.31387       -0.31958
B         -1.64445        4.16612       -0.28941
B         -0.26384        3.39388        0.37519
B         -0.24560        4.79887       -0.40546
B          2.56501        3.40719        0.05442
B          1.16862        4.22164       -0.15705
B          2.59172        1.77445        0.40807
B          3.94956        2.58616       -0.11739
B          4.02655        0.94886        0.31350
B          1.18765        2.60039        0.58494
B          1.25008       -2.45304        0.47433
B         -3.17357       -0.02639        0.55633
B          1.15722        0.89707        0.69936
B         -4.41636       -2.32844       -0.64491
B          5.28428       -1.58736       -0.69681
B          5.25700        0.04663       -0.42770
B          5.23425        1.81249       -0.61943
B          6.37287        0.89623       -1.23046
B          6.40811       -0.61667       -1.27123
B         -1.70133        0.88990        0.79092
B          0.14202       -3.15271        1.62543
B         -0.24466       -1.64538        0.77734
B         -5.81321       -1.53264       -0.80932
B         -5.99305        0.11507       -0.82649
B         -5.81770        1.73952       -0.79718
B          0.02233       -0.21880        1.54377
