45
isomer_3626.log	Energy: -110542.5515808
B          2.56001       -1.66310        0.34699
B          2.56182       -3.29886       -0.04274
B          1.15986       -4.13997       -0.27482
B         -0.29796       -3.32391        0.29654
B          1.09629       -0.78602        0.67433
B         -1.77692       -0.84162        0.79157
B         -1.68888       -4.11768       -0.38141
B          4.00997       -0.77564        0.26238
B         -1.68983       -2.44185        0.22054
B          3.96021       -2.46538       -0.20380
B         -0.25988       -4.76775       -0.54068
B         -3.12828       -3.28339       -0.37480
B         -3.16274       -1.66560        0.20158
B         -4.63504       -0.86293       -0.27394
B         -0.36464        1.72684        0.85730
B         -1.76021        2.41327        0.25072
B         -3.21000        1.59494        0.22185
B         -4.65851        0.75591       -0.26388
B         -4.51627        2.31729       -0.50126
B         -3.22255        3.22009       -0.33437
B         -1.80794        4.09577       -0.33036
B         -0.39448        3.33429        0.33792
B         -0.39841        4.78891       -0.48128
B          2.46476        3.39635       -0.00113
B          1.03897        4.19929       -0.22298
B          2.51044        1.75651        0.36825
B          3.88670        2.60582       -0.17228
B          3.98550        0.91257        0.27287
B          1.07042        2.55889        0.55183
B          1.14388       -2.50909        0.52033
B         -3.26381       -0.13893        0.60862
B          1.07282        0.83337        0.68440
B         -4.44765       -2.41646       -0.53069
B          5.26696       -1.63840       -0.71746
B          5.24306       -0.00889       -0.47338
B          5.21678        1.82351       -0.69594
B          6.38903        0.88944       -1.31693
B          6.41153       -0.66309       -1.32658
B         -1.80077        0.80421        0.80180
B          2.55470       -1.49182        1.53292
B         -0.31463       -1.72286        0.83586
B         -5.96869       -1.72618       -0.72374
B         -6.18927       -0.01559       -0.77593
B         -6.01666        1.71708       -0.77296
B          1.37031        1.02065        1.09477
