45
isomer_3628.log	Energy: -113477.6284631
B         -2.00492        1.77367        0.51392
B         -1.43114        3.34181       -0.12684
B          0.03129        3.78121        0.13369
B          1.14956        2.65143        0.86485
B         -1.01763        0.74926        1.30926
B          1.85059       -0.31583        0.93658
B          2.70470        3.14984        0.37514
B         -3.33237        1.26121       -0.21005
B          2.29137        1.41257        1.00069
B         -2.84291        2.80217       -0.56585
B          1.55537        4.03499        0.13695
B          3.81609        2.03656        0.48272
B          3.56984        0.42570        0.77052
B          4.99605       -0.62201        0.47381
B          0.78968       -2.15609        1.61636
B          0.87671       -1.49720       -0.12023
B          2.52639       -1.42111       -0.52681
B          4.19187       -0.97562       -0.99956
B          2.90052       -1.46298       -2.20392
B          1.39159       -1.75781       -1.74906
B         -0.09937       -2.07163       -1.51123
B         -0.81265       -1.92357        0.28154
B         -1.52206       -2.01699       -1.21390
B         -3.52816       -2.90140        0.91311
B         -2.62781       -1.62110       -0.18366
B         -3.40540       -1.22124        1.37947
B         -4.55042       -2.05565        0.13334
B         -3.89061       -0.37930        0.09294
B         -2.16190       -2.45180        1.60813
B         -0.47551        2.26012        0.75238
B          3.65044       -1.35324        0.81570
B         -1.76243       -0.72149        1.40149
B          4.94871        1.06275       -0.01813
B         -4.18042        2.22514       -1.30457
B         -4.81937        0.73416       -0.72110
B         -5.32090       -0.90989       -0.89244
B         -5.94901        0.14209       -1.76453
B         -5.34925        1.51306       -2.05569
B          2.24568       -2.01085        1.14216
B         -0.67018       -2.10971        2.03556
B          0.70552        1.06031        1.25977
B          5.76284       -0.01999       -0.80663
B          5.50704       -0.66581       -2.05635
B          4.27899       -1.21580       -2.66783
B          0.01357       -0.55994        1.26831
