45
isomer_3629.log	Energy: -113458.7414943
B         -2.54757        1.66303        0.63197
B         -2.53534        3.38361        0.05173
B         -1.18605        4.14686       -0.02339
B          0.27638        3.43640        0.65182
B         -1.20217        0.93776        1.06832
B          1.75004        0.92320        0.98474
B          1.65095        4.15773       -0.20078
B         -3.90496        0.91490        0.15074
B          1.71147        2.56871        0.47438
B         -3.79666        2.51644       -0.20371
B          0.22745        4.70693       -0.31788
B          3.01867        3.32095       -0.26833
B          3.08905        1.74482        0.22309
B          4.36150        0.78552       -0.39637
B          0.28819       -1.73505        1.45945
B          1.40498       -2.41359        0.04262
B          2.99770       -1.72006        0.10197
B          4.46236       -0.87017       -0.10539
B          4.20745       -2.50463       -0.76459
B          2.87019       -3.28711       -0.30820
B          1.55206       -4.14088       -0.01223
B          0.23103       -3.33054        0.93928
B          0.17747       -4.71626        0.07491
B         -2.52701       -3.31248       -0.04646
B         -1.22936       -4.12498        0.18881
B         -2.57024       -1.60616        0.43999
B         -3.80756       -2.45084       -0.30957
B         -3.89594       -0.85164        0.10517
B         -1.08977       -2.40776        0.26243
B         -1.19944        2.57785        0.74403
B          3.14973       -0.00231        0.49946
B         -1.21761       -0.74004        0.83539
B          4.33922        2.46298       -0.76123
B         -5.09194        1.69234       -0.77292
B         -5.15482        0.03890       -0.44615
B         -5.12233       -1.60693       -0.86514
B         -6.13615       -0.69734       -1.55086
B         -6.12784        0.79931       -1.51926
B          1.57899       -0.75483        0.51779
B          0.24706        0.00408        1.24426
B          0.32726        1.81898        1.20947
B          5.43389        1.53414       -1.27189
B          5.57765       -0.04322       -1.26513
B          5.31517       -1.56504       -1.25980
B          0.09685       -1.25357       -0.23255
