45
isomer_0363.log	Energy: -113419.9105225
B          2.20134       -1.29356        0.48522
B          2.14427       -2.85998       -0.69374
B          0.88204       -3.71591       -0.90764
B         -0.55067       -3.49978        0.19558
B          0.82986       -1.11378        1.25780
B         -1.77011       -0.83780        1.10015
B         -1.95803       -3.75392       -0.86124
B          3.81191       -0.77045        0.28327
B         -1.91925       -2.46367        0.26551
B          3.48293       -2.14915       -0.46938
B         -0.56164       -4.15035       -1.27079
B         -3.31105       -2.94821       -0.50602
B         -3.22307       -1.48561        0.25041
B         -4.49219       -0.42490       -0.15008
B         -0.04413        1.61316        0.75269
B         -1.41429        2.44878        0.07799
B         -2.94525        1.90962        0.32451
B         -4.51204        1.19753        0.25121
B         -4.18641        2.77550       -0.46931
B         -2.70369        3.39627       -0.41937
B         -1.20804        3.99121       -0.63433
B          0.13397        3.15122        0.16058
B          0.25471        4.31306       -0.91511
B          2.89691        2.82663       -0.34899
B          1.65252        3.62587       -0.62874
B          2.85142        1.11968        0.43812
B          4.23229        2.13711       -0.11203
B          4.39912        0.79444        0.73167
B          1.41499        1.99977        0.03390
B          0.89909       -2.51917        0.28489
B         -3.17649        0.19705        0.69915
B          1.44194        0.42929        0.69746
B         -4.65690       -2.03988       -0.60578
B          4.97197       -1.68305       -0.69058
B          5.44185       -0.24105        0.07890
B          5.71757        1.40849       -0.14922
B          6.67420        0.42028       -0.82618
B          6.29328       -0.97903       -1.11988
B         -1.59466        0.85141        0.67267
B         -0.60446       -1.07390        2.31101
B         -0.56465       -2.25191        1.27378
B         -5.76677       -1.05855       -0.88387
B         -5.82414        0.49010       -0.77597
B         -5.43164        1.98103       -0.81174
B         -0.20857        0.23612        1.62351
