45
isomer_3630.log	Energy: -113437.3920101
B          2.54322        1.74258       -0.56625
B          2.48184        3.42864        0.08780
B          1.10968        4.15692        0.20939
B         -0.33182        3.40766       -0.46227
B          1.20139        0.91835       -0.86107
B         -1.76003        0.88219       -0.98235
B         -1.75226        4.11480        0.28380
B          3.91672        0.99218       -0.19905
B         -1.77197        2.51959       -0.44844
B          3.78473        2.58447        0.26543
B         -0.33099        4.68844        0.47134
B         -3.10844        3.25919        0.23568
B         -3.16782        1.68153       -0.33303
B         -4.52147        0.73533        0.08895
B         -0.26358       -1.82542       -1.48389
B         -1.40819       -2.31798        0.06765
B         -2.98621       -1.74409       -0.11338
B         -4.46797       -0.93221        0.11746
B         -4.19426       -2.52215        0.80558
B         -2.79327       -3.25314        0.52199
B         -1.43023       -4.08609        0.41766
B         -0.16196       -3.27630       -0.48682
B         -0.03437       -4.66730        0.34606
B          2.66678       -3.26426       -0.13858
B          1.33727       -4.07818        0.00781
B          2.64716       -1.56255       -0.55499
B          3.94790       -2.39699        0.07955
B          3.97708       -0.76800       -0.26208
B          1.26484       -2.47295       -0.77127
B          1.15050        2.56600       -0.53723
B         -3.21040       -0.06780       -0.63500
B          1.20584       -0.77611       -0.86579
B         -4.46120        2.39151        0.57989
B          5.10313        1.76842        0.77608
B          5.13285        0.12858        0.43924
B          5.24691       -1.54031        0.64793
B          6.24892       -0.63504        1.38130
B          6.17456        0.86477        1.46128
B         -1.64549       -0.86192       -0.87965
B         -0.10951       -1.29939        0.16403
B         -0.34038        1.81090       -1.03057
B         -5.55538        1.45813        1.05404
B         -5.67301       -0.12246        1.09726
B         -5.41121       -1.64775        1.18426
B         -0.24992        0.01822       -1.17972
