45
isomer_3631.log	Energy: -113473.5468403
B         -2.54022       -1.63441       -0.55176
B         -2.82991       -3.16073        0.57277
B         -1.52333       -4.03151        0.61897
B         -0.16374       -3.23236       -0.41407
B         -1.00435       -0.61245       -1.02125
B          1.69204       -0.81674       -0.89666
B          1.25930       -3.97715        0.35852
B         -3.84310       -0.58445       -0.16860
B          1.48917       -2.47909       -0.41328
B         -3.92011       -2.12175        0.40893
B         -0.10454       -4.47956        0.64963
B          2.73270       -3.32412        0.32465
B          2.95079       -1.78012       -0.12210
B          4.46943       -1.05389        0.18044
B          0.55725        1.77619       -0.91736
B          2.04174        2.46671       -0.45320
B          3.40883        1.55889       -0.33084
B          4.75877        0.58415       -0.09184
B          4.71336        2.19235        0.58581
B          3.42225        3.13479        0.22395
B          2.12205        4.05842        0.30180
B          0.65292        3.42776       -0.43009
B          0.74743        4.72666        0.49966
B         -2.15619        3.51280        0.14013
B         -0.68725        4.24985        0.23977
B         -2.31647        1.98003       -0.45503
B         -3.59586        2.81645        0.28446
B         -3.73957        1.14566       -0.04779
B         -0.84309        2.68421       -0.55053
B         -1.98417       -3.30731       -0.79450
B          3.28214       -0.13842       -0.64640
B         -0.95631        0.99618       -0.93636
B          4.19170       -2.66775        0.69024
B         -5.27146       -1.23948        0.58042
B         -5.22297        0.41630        0.16836
B         -4.94066        2.05644        0.71753
B         -6.08669        1.16217        1.31760
B         -6.33149       -0.30810        1.14603
B          1.85092        0.79100       -0.79888
B         -2.36731        0.19537       -0.54161
B          0.30648       -1.60974       -1.19925
B          5.46011       -1.90836        1.08541
B          5.79429       -0.39665        1.06318
B          5.68221        1.14514        1.10110
B         -1.15708       -2.21336       -1.47796
