45
isomer_3633.log	Energy: -110911.5111019
B         -2.65743        1.77557        0.44436
B         -2.65753        3.42462        0.11533
B         -1.25521        4.26875       -0.10316
B          0.20633        3.42697        0.41929
B         -1.19327        0.88181        0.72065
B          1.68137        0.92285        0.80370
B          1.59187        4.24031       -0.24635
B         -4.11188        0.89699        0.34530
B          1.59360        2.54340        0.29327
B         -4.06114        2.60262       -0.05877
B          0.16362        4.90089       -0.36351
B          3.02789        3.40125       -0.28865
B          3.06303        1.76316        0.22713
B          4.52607        0.97340       -0.29619
B          0.25974       -1.64126        0.79234
B          1.64489       -2.30974        0.14331
B          3.09748       -1.49605        0.12642
B          4.54318       -0.64478       -0.34620
B          4.39174       -2.19580       -0.63924
B          3.09660       -3.09956       -0.48953
B          1.67865       -3.96977       -0.50004
B          0.27667       -3.22851        0.21364
B          0.26458       -4.65186       -0.65869
B         -2.58679       -3.26787       -0.09146
B         -1.16710       -4.06710       -0.36073
B         -2.62130       -1.64265        0.33874
B         -4.00757       -2.46651       -0.21540
B         -4.09404       -0.79053        0.29316
B         -1.18233       -2.45635        0.47445
B         -1.23587        2.60955        0.63098
B          3.16305        0.22214        0.57623
B         -1.17616       -0.73692        0.67063
B          4.34173        2.53601       -0.49303
B         -5.37749        1.79982       -0.58612
B         -5.35708        0.16233       -0.40268
B         -5.34092       -1.66067       -0.69305
B         -6.51705       -0.70013       -1.26433
B         -6.53345        0.85177       -1.21638
B          1.69876       -0.72230        0.75286
B          0.16948       -3.40696        2.13578
B          0.22329        1.80702        0.89889
B          5.85747        1.84795       -0.73056
B          6.07053        0.13969       -0.84864
B          5.89103       -1.59128       -0.90746
B          0.61098       -1.25225        0.38375
