45
isomer_3634.log	Energy: -113463.5562583
B         -2.51469       -1.62401       -0.61502
B         -2.44710       -3.10769        0.27817
B         -1.03386       -3.98176        0.21175
B          0.33327       -3.30428       -0.51908
B         -1.04164       -0.73504       -0.99546
B          1.80700       -0.77691       -0.75727
B          1.75940       -4.09251        0.15482
B         -3.98215       -0.71834       -0.51251
B          1.83180       -2.48299       -0.52614
B         -3.98086       -2.33517       -0.44580
B          0.33812       -4.62423        0.40301
B          3.14253       -3.31130        0.08355
B          3.31474       -1.71663       -0.42327
B          4.72373       -0.90686       -0.12588
B          0.42962        1.76200       -0.97793
B          1.84257        2.50068       -0.33054
B          3.21480        1.65123       -0.11169
B          4.65818        0.76988        0.18027
B          4.52736        2.40154        0.74745
B          3.17240        3.21681        0.40150
B          1.77483        4.09679        0.40091
B          0.43287        3.38575       -0.38703
B          0.38692        4.73921        0.46354
B         -2.39991        3.42358       -0.14503
B         -1.00816        4.19394        0.10837
B         -2.46529        1.82549       -0.60594
B         -3.78736        2.62599        0.07351
B         -3.94671        1.01360       -0.45944
B         -1.02956        2.63995       -0.73729
B         -1.02823       -2.39097       -0.50636
B          3.31496        0.00821       -0.62211
B         -0.99234        0.90674       -0.99343
B          4.51057       -2.50319        0.50857
B         -4.93343       -1.58460        0.88470
B         -5.00137        0.13421        0.51899
B         -5.02376        1.83046        0.68143
B         -6.08287        0.89183        1.40220
B         -6.05178       -0.60804        1.47514
B          1.79887        0.82364       -0.78771
B         -3.59003       -2.42645        1.07923
B          0.39728       -1.60050       -0.88841
B          5.54547       -1.56759        1.10508
B          5.85445       -0.05466        1.07935
B          5.70276        1.48168        1.14304
B         -2.47340        0.13050       -0.91122
