45
isomer_3636.log	Energy: -113659.7684298
B          2.43603       -1.79488        0.44647
B          2.34592       -3.37166       -0.10388
B          0.96641       -4.18376       -0.13732
B         -0.41230       -3.39900        0.54900
B          2.54028       -0.04110        0.66000
B         -1.81423       -0.81019        0.96387
B         -1.82045       -4.11839       -0.21913
B          3.85142       -0.95842       -0.01006
B         -1.86131       -2.51054        0.52317
B          3.71082       -2.57557       -0.39970
B         -0.43033       -4.74801       -0.34330
B         -3.15439       -3.23235       -0.24268
B         -3.21305       -1.63182        0.28861
B         -4.56644       -0.73760       -0.20666
B         -0.29741        1.83012        1.07930
B         -1.67630        2.56645        0.39594
B         -3.10360        1.77353        0.22760
B         -4.53383        0.96077       -0.16615
B         -4.27481        2.55148       -0.80913
B         -2.93179        3.36493       -0.33358
B         -1.53813        4.16956       -0.30807
B         -0.21170        3.42141        0.52482
B         -0.11097        4.73456       -0.39686
B          2.61972        3.28275       -0.00263
B          1.25444        4.14659       -0.10265
B          2.57127        1.69538        0.53756
B          3.99568        2.42926       -0.12874
B          3.98827        0.77068        0.24469
B          1.21031        2.57393        0.75821
B          1.07370       -2.64474        0.77627
B         -3.30938        0.07252        0.62959
B          1.09436        0.84736        0.86775
B         -4.45912       -2.37939       -0.73032
B          5.00626       -1.78508       -0.96663
B          5.25452       -0.12923       -0.46264
B          5.27515        1.59565       -0.63437
B          6.26768        0.65364       -1.42707
B          6.13531       -0.86044       -1.58242
B         -1.72093        0.86328        0.86211
B          1.10169       -0.85716        1.02271
B         -0.40451       -1.83806        1.16580
B         -5.50754       -1.44317       -1.29450
B         -5.61894        0.11639       -1.31418
B         -5.35085        1.64823       -1.36217
B         -0.37689       -0.01793        1.16135
