45
isomer_3638.log	Energy: -112439.7674475
B          2.60811       -1.67396        0.30660
B          2.60158       -3.30250       -0.10055
B          1.19641       -4.13695       -0.34075
B         -0.25584       -3.32435        0.23679
B          1.15486       -0.80992        0.63604
B         -1.73193       -0.83005        0.75340
B         -1.64730       -4.09928       -0.45071
B          4.05353       -0.78469        0.23733
B         -1.65298       -2.43100        0.16601
B          3.99733       -2.46360       -0.24860
B         -0.22112       -4.74528       -0.61135
B         -3.08453       -3.25581       -0.44106
B         -3.11858       -1.64511        0.14765
B         -4.58330       -0.82621       -0.32379
B         -0.31554        1.74502        0.84557
B         -1.70156        2.43839        0.24042
B         -3.15125        1.62555        0.19938
B         -4.59805        0.79560       -0.29670
B         -4.45503        2.36164       -0.52492
B         -3.14865        3.25243       -0.34209
B         -1.73029        4.12303       -0.32518
B         -0.32358        3.35536        0.34119
B         -0.32005        4.80231       -0.46118
B          2.53545        3.40327        0.00950
B          1.11404        4.21399       -0.20640
B          2.57997        1.76141        0.36356
B          3.95302        2.59823       -0.16660
B          4.03889        0.91143        0.26435
B          1.14394        2.57500        0.54950
B          1.19215       -2.52093        0.46798
B         -3.21509       -0.11285        0.56884
B          1.14604        0.85121        0.66404
B         -4.41163       -2.38527       -0.59788
B          5.30146       -1.63840       -0.74798
B          5.28522       -0.00833       -0.48638
B          5.26913        1.81448       -0.69043
B          6.42758        0.88247       -1.31410
B          6.44783       -0.65882       -1.34261
B         -1.74879        0.82262        0.77821
B          1.23531       -1.20386        3.04901
B         -0.27469       -1.72951        0.79276
B         -5.90679       -1.66595       -0.78338
B         -6.11188        0.03241       -0.81818
B         -5.93436        1.73896       -0.79942
B          0.36098        0.14779        0.80212
