45
isomer_3639.log	Energy: -112500.7461708
B         -2.63056        1.74368        0.40927
B         -2.62115        3.38396        0.03915
B         -1.21391        4.21479       -0.19787
B          0.24217        3.37845        0.34804
B         -1.17175        0.84920        0.71040
B          1.70293        0.87679        0.79750
B          1.63321        4.16742       -0.33525
B         -4.08961        0.87076        0.32960
B          1.62481        2.48453        0.24659
B         -4.02893        2.56546       -0.11686
B          0.20877        4.83256       -0.47141
B          3.06471        3.31982       -0.35403
B          3.09009        1.69496        0.20258
B          4.54967        0.88448       -0.29826
B          0.26739       -1.67909        0.84766
B          1.64995       -2.37105        0.21800
B          3.10697       -1.56589        0.18337
B          4.55805       -0.73450       -0.30779
B          4.39866       -2.29153       -0.56227
B          3.09837       -3.18426       -0.39233
B          1.67573       -4.04679       -0.38362
B          0.27664       -3.28037        0.30882
B          0.25824       -4.72499       -0.52770
B         -2.58649       -3.31188       -0.00029
B         -1.17073       -4.12525       -0.24699
B         -2.61286       -1.67626        0.38913
B         -4.00268       -2.50621       -0.14673
B         -4.08087       -0.81761        0.31965
B         -1.17857       -2.49408        0.54767
B         -1.20480        2.57438        0.57752
B          3.18115        0.16263        0.59024
B         -1.16337       -0.77034        0.70086
B          4.37415        2.44266       -0.53439
B         -5.34877        1.75686       -0.62633
B         -5.33756        0.12438       -0.40202
B         -5.33084       -1.70537       -0.64672
B         -6.50079       -0.75308       -1.24391
B         -6.50883        0.79960       -1.23477
B          1.71145       -0.76919        0.78780
B          0.06953       -1.26637       -0.37649
B          0.24953        1.77093        0.86798
B          5.88652        1.74071       -0.75197
B          6.09047        0.02891       -0.82696
B          5.90165       -1.70200       -0.84284
B         -0.08772       -0.89181        2.40600
