45
isomer_0364.log	Energy: -113534.2814870
B          1.30544        1.71472        0.15358
B          1.26653        3.48963        0.32824
B          0.03023        4.26205       -0.23624
B         -1.07513        3.33786       -1.16014
B          0.98744        1.19651       -1.63436
B         -1.59615        0.57270       -0.85615
B         -2.62543        3.79799       -0.60418
B          3.03758        1.45147        0.42700
B         -2.28956        2.14350       -1.06037
B          2.45027        2.81507        1.09593
B         -1.43253        4.71185       -0.42606
B         -3.72304        2.62701       -0.30371
B         -3.18787        1.09440       -0.23071
B         -4.12603        0.01337        0.65872
B          0.04671       -1.98497       -1.60647
B         -0.93293       -2.78548       -0.54144
B         -2.23264       -2.16013        0.15527
B         -3.58886       -1.51559        0.87525
B         -3.17698       -3.08813        1.33659
B         -1.86161       -3.70502        0.54699
B         -0.49365       -4.37673        0.09738
B          0.45752       -3.53194       -1.17166
B          0.93685       -4.74655       -0.21614
B          3.20788       -2.72378       -0.76977
B          2.10907       -3.89072       -0.66516
B          2.65888       -1.16881       -0.71774
B          4.22842       -1.64345       -0.13501
B          3.78551       -0.01967       -0.17261
B          1.68174       -2.33042       -1.30325
B          0.59216        2.81305       -1.03632
B         -2.68681       -0.55189       -0.12100
B          2.24923        0.51682       -0.79806
B         -4.66868        1.61909        0.58979
B          3.72103        2.21879        1.82757
B          4.32906        0.73863        1.22153
B          5.11110       -0.70129        0.75807
B          5.73705        0.30920        1.82895
B          5.07523        1.55193        2.36318
B         -0.91985       -0.95933       -0.65697
B          0.08579        0.57202       -0.25363
B         -0.63969        1.69379       -1.55216
B         -5.40517        0.55409        1.41415
B         -5.03066       -0.94146        1.77170
B         -4.36806       -2.36802        1.95676
B          0.97063       -0.62217       -1.17737
