45
isomer_3640.log	Energy: -113401.0765216
B         -2.48744        1.67794        0.47034
B         -2.47574        3.35891       -0.08580
B         -1.11721        4.09619       -0.32614
B          0.31500        3.34675        0.24771
B         -1.16190        0.87824        0.95940
B          1.76118        0.87051        0.77062
B          1.72624        4.10927       -0.47883
B         -3.89502        0.95668        0.18130
B          1.78191        2.52228        0.31903
B         -3.82761        2.57714       -0.08119
B          0.29137        4.68039       -0.61089
B          3.10153        3.28507       -0.38789
B          3.17413        1.69684        0.18013
B          4.63603        0.82890        0.03193
B          0.38847       -1.69170        1.38467
B          1.69916       -2.46532        0.52534
B          3.13997       -1.67339        0.39445
B          4.55844       -0.85109       -0.02684
B          4.38563       -2.46192       -0.62442
B          2.96356       -3.19887       -0.21238
B          1.52304       -3.87360       -0.39166
B          0.04309       -3.23714        0.35385
B          0.17892       -4.29301       -0.89117
B         -2.65530       -3.16086       -0.77097
B         -1.24274       -3.82966       -0.92237
B         -2.47519       -1.60073        0.26931
B         -3.85894       -2.25745       -0.52934
B         -3.85488       -0.76990        0.04069
B         -1.68529       -3.12539        0.51275
B         -1.16071        2.57637        0.63174
B          3.33398        0.00297        0.74732
B         -1.19990       -0.79014        0.91968
B          4.44676        2.42246       -0.72364
B         -5.23199        1.79676       -0.44471
B         -5.27905        0.13154       -0.07373
B         -5.26901       -1.43875       -0.66330
B         -6.41239       -0.52932       -1.09151
B         -6.41060        0.95430       -0.95107
B          1.75907       -0.77411        1.05524
B          0.27999        0.06480        0.98362
B          0.33921        1.82010        0.93649
B          5.53923        1.45227       -1.13422
B          5.76449       -0.07513       -1.03510
B          5.54621       -1.62149       -1.04486
B         -0.97573       -2.38775        1.58645
