45
isomer_3641.log	Energy: -113460.5821910
B          2.64836        1.68561       -0.69566
B          2.58168        3.29762       -0.17776
B          1.20202        4.13757        0.02713
B         -0.22441        3.40184       -0.53890
B          1.23472        0.79839       -1.09146
B         -1.67567        0.88990       -0.73139
B         -1.60023        4.18322        0.28039
B          4.08514        0.88514       -0.39625
B         -1.68842        2.58792       -0.44243
B          3.90877        2.45184        0.14405
B         -0.16513        4.72974        0.35189
B         -2.98052        3.37646        0.29621
B         -3.12432        1.80670       -0.24311
B         -4.51538        0.93683        0.14892
B         -0.26480       -1.77922       -1.16752
B         -1.50731       -2.38876       -0.19224
B         -3.05754       -1.64197       -0.17284
B         -4.44322       -0.71228        0.31382
B         -4.29016       -2.37389        0.74560
B         -2.96016       -3.17388        0.30150
B         -1.56212       -4.04871        0.12200
B         -0.28613       -3.50138       -1.14617
B         -0.19757       -4.68873        0.10447
B          2.34830       -3.03839        0.22467
B          1.18049       -4.05192        0.02808
B          2.58743       -1.48695       -0.53653
B          3.69457       -2.19466        0.52915
B          3.99657       -0.77089       -0.28972
B          1.20177       -2.50567       -0.85600
B          1.25350        2.51041       -0.70594
B         -3.20779        0.10360       -0.51062
B          1.23238       -0.75591       -1.16537
B         -4.34153        2.57343        0.73217
B          5.11929        1.70591        0.77208
B          5.21766        0.03734        0.52494
B          5.02278       -1.58343        1.03536
B          6.12945       -0.68605        1.65069
B          6.16708        0.80108        1.56807
B         -1.68204       -0.75306       -0.88299
B         -0.01468       -2.86207        0.49160
B         -0.29374        1.80879       -1.02297
B         -5.40472        1.65275        1.25976
B         -5.61302        0.08156        1.26458
B         -5.44912       -1.46369        1.25230
B         -0.26220        0.01782       -1.20355
