45
isomer_3642.log	Energy: -113675.8868313
B          2.50912        1.75981       -0.48824
B          2.42751        3.33464        0.04059
B          1.04756        4.15710        0.12352
B         -0.35103        3.38487       -0.51437
B          1.12986        0.84895       -1.04224
B         -1.78611        0.83048       -0.91117
B         -1.74814        4.14404        0.24654
B          3.95630        0.91042       -0.21549
B         -1.80211        2.53266       -0.48855
B          3.80972        2.53703        0.29319
B         -0.34164        4.74555        0.35266
B         -3.09200        3.28043        0.26627
B         -3.17333        1.68024       -0.26006
B         -4.53241        0.79777        0.23690
B         -0.31292       -1.83073       -1.08721
B         -1.72453       -2.55130       -0.43079
B         -3.12899       -1.73320       -0.22088
B         -4.54711       -0.89420        0.14504
B         -4.32663       -2.49958        0.77035
B         -3.00849       -3.34031        0.27902
B         -1.64191       -4.16956        0.25912
B         -0.26884       -3.40275       -0.53785
B         -0.21968       -4.74784        0.35385
B          2.51368       -3.30356        0.03678
B          1.15684       -4.14901        0.10940
B          2.56323       -1.73046       -0.53068
B          3.86975       -2.48494        0.27556
B          3.98415       -0.84530       -0.22503
B          1.18582       -2.57742       -0.78879
B          1.11931        2.59005       -0.76479
B         -3.29370       -0.01616       -0.60938
B          2.60969        0.01627       -0.74616
B         -4.40707        2.44421        0.74907
B          5.06084        1.73860        0.86462
B          5.19578        0.04440        0.52245
B          5.10475       -1.65183        0.84467
B          6.10519       -0.70693        1.60505
B          6.08482        0.81384        1.61240
B         -1.71803       -0.84339       -0.78844
B         -0.34278       -0.00280       -1.09386
B         -0.36903        1.82540       -1.11724
B         -5.47350        1.51839        1.30097
B         -5.62039       -0.03356        1.30398
B         -5.37369       -1.56972        1.33772
B          1.17017       -0.85060       -1.06849
