45
isomer_3644.log	Energy: -113478.6776169
B         -2.56965       -1.70110       -0.61043
B         -2.47812       -3.12547        0.42815
B         -1.11475       -3.88405        0.48534
B          0.14334       -3.31219       -0.57441
B         -1.27541       -0.73539       -0.74681
B          1.67226       -0.74897       -0.71250
B          1.65856       -4.12727        0.12195
B         -3.94696       -0.82422       -0.25100
B          1.66357       -2.46947       -0.36371
B         -3.83825       -2.31027        0.39218
B          0.30825       -4.54442        0.53811
B          3.03204       -3.30495        0.05525
B          3.11946       -1.69574       -0.40051
B          4.58376       -0.83854       -0.16839
B          0.34522        1.86509       -1.04560
B          1.75436        2.55774       -0.43279
B          3.14957        1.75674       -0.21962
B          4.49535        0.79735        0.21892
B          4.42039        2.45879        0.73378
B          3.06490        3.29617        0.36332
B          1.69211        4.14664        0.41897
B          0.31207        3.38754       -0.35716
B          0.28456        4.69243        0.57324
B         -2.49674        3.31153        0.05012
B         -1.12433        4.09460        0.27087
B         -2.52895        1.65104       -0.57193
B         -3.83923        2.50003        0.10136
B         -3.94333        0.91872       -0.29109
B         -1.17155        2.60367       -0.65012
B         -1.31625       -2.73336       -1.05974
B          3.25793        0.06011       -0.67117
B         -1.16079        0.90199       -1.02500
B          4.39637       -2.46059        0.43570
B         -5.22360       -1.52452        0.65523
B         -5.29279        0.07180        0.09434
B         -5.22816        1.72169        0.50026
B         -6.32510        0.87037        1.13216
B         -6.32451       -0.60464        1.21390
B          1.77767        0.90132       -0.93941
B          0.24788        0.05648       -1.04844
B          0.18453       -1.58758       -0.38788
B          5.45444       -1.53949        0.99550
B          5.73291       -0.01964        1.05402
B          5.56171        1.52569        1.14038
B         -1.11476       -2.05566        0.55465
