45
isomer_3645.log	Energy: -113489.8661334
B         -2.56643       -1.76729       -0.67632
B         -2.44378       -3.30624        0.02236
B         -1.03196       -4.13833        0.04109
B          0.41090       -3.40765       -1.11299
B         -1.28784       -0.78889       -1.05837
B          1.64772       -0.66839       -0.62909
B          1.73839       -4.05383       -0.06599
B         -3.84294       -0.81670       -0.21552
B          1.56829       -2.33035        0.07914
B         -3.74036       -2.44545        0.21477
B          0.37833       -4.73947        0.00142
B          3.10794       -3.14046        0.15724
B          3.10418       -1.56763       -0.15241
B          4.53515       -0.59694        0.04351
B          0.18791        1.83397       -1.11545
B          1.56990        2.63660       -0.49178
B          2.98562        1.88959       -0.18068
B          4.27157        1.00069        0.47299
B          4.20197        2.67120        0.82027
B          2.79468        3.42789        0.34706
B          1.40129        4.23668        0.24373
B          0.07748        3.40281       -0.55832
B         -0.03218        4.78219        0.25402
B         -2.74437        3.31130       -0.30361
B         -1.38951        4.16275       -0.08175
B         -2.70347        1.64099       -0.67165
B         -4.01663        2.46286        0.06690
B         -4.08767        0.80313       -0.34386
B         -1.35932        2.52935       -0.81865
B         -1.09316       -2.58467       -0.71039
B          3.17172        0.18477       -0.51219
B         -1.29980        0.79781       -1.04132
B          4.40257       -2.29153        0.60950
B         -4.90473       -1.64500        1.02089
B         -4.66468        0.01422        0.97651
B         -5.18238        1.64264        0.73622
B         -6.07591        0.67850        1.52731
B         -5.87038       -0.80100        1.78041
B          1.64779        0.94761       -0.92098
B          0.19429       -3.03013        0.61520
B          0.30688       -1.72429       -0.93780
B          5.46345       -1.29523        1.12853
B          5.61503        0.24014        1.21518
B          5.36439        1.81537        1.27561
B          0.19007        0.02639       -1.05074
