45
isomer_3647.log	Energy: -113763.9260069
B         -3.00287       -0.74856       -1.77392
B         -3.62345       -2.02227       -0.81482
B         -2.49540       -2.92850        0.08848
B         -0.81687       -2.90213       -0.57527
B         -1.35680       -0.33727       -1.05860
B          1.39302       -0.99158       -1.28447
B          0.17833       -3.85922        0.42825
B         -2.79616        0.82442       -1.42805
B          0.86364       -2.54764       -0.60862
B         -3.95830       -0.39441       -0.41967
B         -1.30499       -3.91086        0.55777
B          1.78086       -3.48132        0.40524
B          2.37458       -2.10532       -0.26006
B          3.87530       -1.55281        0.31366
B          0.51484        1.93093       -1.18396
B          2.06073        2.30291       -0.69250
B          3.25716        1.18865       -0.37300
B          4.45957       -0.02921       -0.06819
B          4.52666        1.60382        0.64738
B          3.44159        2.71144        0.25200
B          2.25945        3.78625        0.37921
B          0.78466        3.37005       -0.40475
B          0.98791        4.54239        0.67429
B         -1.98697        3.59335        0.38352
B         -0.52883        4.20817        0.45546
B         -2.43546        2.21394       -0.64657
B         -3.09233        2.58807        0.93474
B         -3.65293        1.19346        0.15843
B         -0.84090        2.81305       -0.46165
B         -1.92009       -1.98980       -1.48197
B          3.02455       -0.54911       -0.77275
B         -1.07653        1.29363       -1.26697
B          3.31196       -3.09525        0.85197
B         -3.62642       -1.89217        0.94889
B         -3.42187       -0.14678        1.22919
B         -3.64990        1.47619        1.87485
B         -4.02199        0.21471        2.72077
B         -4.02044       -1.20765        2.33988
B          1.77241        0.64531       -1.06937
B         -2.32847       -1.08384        0.12385
B         -0.20664       -1.64462       -1.57800
B          4.63596       -2.55165        1.32115
B          5.20166       -1.10932        1.28241
B          5.28828        0.42028        1.23588
B          0.17146        0.16027       -1.38409
