45
isomer_3649.log	Energy: -112527.3719203
B         -2.55085       -1.71413       -0.34738
B         -2.57373       -3.34723        0.04389
B         -1.15860       -4.18981        0.26312
B          0.28536       -3.37643       -0.30729
B         -1.10349       -0.88113       -0.68935
B          1.76919       -0.84991       -0.81024
B          1.67169       -4.15230        0.36878
B         -4.01501       -0.75426       -0.30062
B          1.68462       -2.47900       -0.23512
B         -3.96246       -2.46791        0.19665
B          0.25493       -4.78319        0.52430
B          3.10113       -3.30922        0.36402
B          3.14487       -1.68959       -0.21024
B          4.60770       -0.86783        0.26466
B          0.37765        1.80673       -0.87111
B          1.77647        2.46095       -0.27261
B          3.20496        1.62601       -0.23878
B          4.63161        0.77082        0.24804
B          4.51960        2.34583        0.49772
B          3.21415        3.24918        0.31300
B          1.80974        4.13991        0.30237
B          0.39338        3.40787       -0.36115
B          0.41272        4.82230        0.44244
B         -2.46025        3.47538       -0.03232
B         -1.03443        4.27658        0.18935
B         -2.53052        1.83977       -0.40272
B         -3.88265        2.64655        0.13723
B         -3.98639        0.97768       -0.30567
B         -1.08130        2.66420       -0.57513
B         -1.14897       -2.58181       -0.52847
B          3.25589       -0.12459       -0.61931
B         -1.08855        0.96955       -0.71200
B          4.44714       -2.44435        0.53718
B         -5.24172       -1.60451        0.69717
B         -5.21435        0.04691        0.44641
B         -5.18238        1.85097        0.66343
B         -6.31504        0.92007        1.28950
B         -6.35263       -0.60616        1.31282
B          1.80171        0.83944       -0.82242
B         -2.99201       -1.33477       -1.51322
B          0.29997       -1.77733       -0.84962
B          5.90236       -1.69574        0.71620
B          6.10665       -0.01957        0.75569
B          5.95211        1.65306        0.75169
B         -0.75027        0.26103       -0.32089
