45
isomer_3651.log	Energy: -111689.3674088
B         -2.58334       -1.69765       -0.52174
B         -2.57535       -3.33599       -0.14306
B         -1.16910       -4.16512        0.10554
B          0.28952       -3.33115       -0.43718
B         -1.12326       -0.80428       -0.81998
B          1.75185       -0.83138       -0.89208
B          1.67725       -4.11611        0.25737
B         -4.04304       -0.82480       -0.45415
B          1.67136       -2.43626       -0.33324
B         -3.98417       -2.51714        0.00142
B          0.25232       -4.78099        0.38963
B          3.10838       -3.26796        0.27914
B          3.13615       -1.64600       -0.28576
B          4.59288       -0.83246        0.21839
B          0.31582        1.72374       -0.96294
B          1.69490        2.41941       -0.32975
B          3.15196        1.61491       -0.28341
B          4.60073        0.78656        0.21956
B          4.43956        2.34483        0.46512
B          3.13990        3.23625        0.28382
B          1.71707        4.09826        0.26328
B          0.32180        3.32780       -0.43239
B          0.29865        4.77674        0.39651
B         -2.54290        3.35998       -0.13824
B         -1.12868        4.17508        0.11154
B         -2.56677        1.72235       -0.51928
B         -3.95958        2.55462        0.00507
B         -4.03486        0.86359       -0.45293
B         -1.13191        2.53980       -0.67466
B         -1.15648       -2.52875       -0.67831
B          3.22875       -0.11567       -0.68090
B         -1.11541        0.81529       -0.81881
B          4.41661       -2.38944        0.46171
B         -5.30685       -1.70634        0.49985
B         -5.29498       -0.07504        0.26712
B         -5.29007        1.75596        0.50235
B         -6.46281        0.80639        1.09843
B         -6.47033       -0.74631        1.09731
B          1.75982        0.81463       -0.89089
B         -0.88183       -0.16789        2.69168
B          0.29910       -1.72635       -0.96542
B          5.92762       -1.68588        0.68344
B          6.13068        0.02635        0.75060
B          5.94126        1.75726        0.75651
B         -1.04221        0.20918       -0.09031
