45
isomer_3653.log	Energy: -113434.6972924
B          2.60370       -1.63181        0.67763
B          2.51998       -3.23864        0.06078
B          1.16744       -4.11685       -0.04422
B         -0.30769       -3.37731        0.49302
B          1.13070       -0.83835        1.03610
B         -1.56518       -0.74867        0.09552
B         -1.63870       -4.14559       -0.34766
B          4.01993       -0.79960        0.41895
B         -1.69900       -2.50566        0.27387
B          3.87884       -2.36308       -0.14610
B         -0.22525       -4.72075       -0.36663
B         -3.04852       -3.30274       -0.37463
B         -3.07013       -1.69312       -0.06213
B         -4.53915       -0.82651       -0.01541
B         -0.25512        1.64020        0.63208
B         -1.68680        2.49234        0.51987
B         -3.12167        1.75363        0.40446
B         -4.40467        0.83191       -0.26152
B         -4.42649        2.52959       -0.45765
B         -3.01077        3.29858       -0.11521
B         -1.62561        4.18633       -0.11629
B         -0.24328        3.26605        0.20514
B         -0.21055        4.77157       -0.26841
B          2.59328        3.26333       -0.08391
B          1.21348        4.10275       -0.18001
B          2.66772        1.58172        0.35924
B          3.99268        2.41846       -0.25760
B          4.10004        0.87535        0.40818
B          1.27384        2.45507        0.33170
B          1.21233       -2.55729        0.68168
B         -3.13155       -0.00914        0.47117
B          1.21013        0.69574        0.59734
B         -4.42125       -2.47058       -0.71168
B          5.15243       -1.65649       -0.67845
B          5.31226       -0.00441       -0.33827
B          5.28653        1.67226       -0.69440
B          6.39103        0.71940       -1.29776
B          6.30332       -0.76769       -1.33277
B         -1.69303        0.75571        1.08410
B         -0.17791        0.04430       -0.15432
B         -0.35381       -1.73434        0.93775
B         -5.51314       -1.48436       -1.07730
B         -5.74337        0.07448       -0.98193
B         -5.58988        1.64216       -0.90586
B         -0.32711       -0.07796        1.58159
