45
isomer_3654.log	Energy: -113510.9143760
B         -2.56182       -1.73946       -0.90629
B         -2.34074       -3.03964        0.29964
B         -0.92686       -3.86223        0.38273
B          0.40480       -3.28747       -0.50266
B         -1.03023       -0.79321       -0.96551
B          1.80961       -0.75522       -0.80130
B          1.84741       -4.00863        0.20047
B         -3.98176       -0.91935       -0.62819
B          1.87403       -2.42716       -0.55569
B         -3.84476       -2.63852        0.24968
B          0.43943       -4.50663        0.54579
B          3.22795       -3.22443        0.05884
B          3.33074       -1.65788       -0.44733
B          4.74326       -0.77978       -0.16009
B          0.36547        1.67554       -0.86240
B          1.73735        2.45707       -0.21665
B          3.20331        1.75634       -0.19143
B          4.56925        0.83434        0.23338
B          4.46779        2.47482        0.72388
B          3.05692        3.26665        0.41233
B          1.63796        4.09122        0.40042
B          0.32552        3.34648       -0.40585
B          0.22735        4.69343        0.41868
B         -2.52400        3.32780       -0.19042
B         -1.18354        4.10841        0.02842
B         -2.53383        1.62300       -0.47837
B         -3.89848        2.47981       -0.05489
B         -3.96130        0.82914       -0.55265
B         -1.14208        2.54479       -0.70325
B         -1.05879       -2.45548       -0.68076
B          3.32893        0.06339       -0.64402
B         -1.00937        0.80122       -0.72111
B          4.60375       -2.40771        0.43620
B         -4.84799       -1.63019        0.84287
B         -5.22052       -0.04584        0.17620
B         -5.14901        1.66863        0.48326
B         -6.13935        0.78713        1.24534
B         -5.90855       -0.65067        1.51258
B          1.76544        0.83821       -0.81909
B         -2.95517       -1.34483        0.82975
B          0.41679       -1.59824       -0.96345
B          5.66851       -1.47199        0.96609
B          5.89694        0.05862        0.99897
B          5.67900        1.59351        1.07833
B         -2.40935       -0.07501       -0.07246
