45
isomer_3655.log	Energy: -113401.1489199
B          1.64690        1.81438       -0.21938
B          1.65125        3.39274        0.42518
B          0.22483        4.09605        0.71483
B         -1.11127        3.58340       -0.27222
B          0.21661        1.18663       -0.92304
B         -1.72703        0.83204       -1.17916
B         -2.53320        3.69014        0.72484
B          3.11277        0.91878       -0.21427
B         -2.40002        2.43177       -0.51391
B          2.97335        2.56501        0.48597
B         -1.22454        4.41414        1.07969
B         -3.71486        2.65168        0.45531
B         -3.38930        1.17897       -0.29107
B         -4.58868        0.00995       -0.15453
B          0.89598       -1.69057       -0.81504
B         -0.76514       -2.07517       -0.68614
B         -2.54822       -2.03285       -0.81340
B         -4.13116       -1.60735       -0.22955
B         -3.38339       -3.02881        0.25452
B         -1.77193       -3.26555        0.01902
B         -0.45294       -3.94248        0.22104
B          0.29784       -2.53463        0.77228
B          0.97510       -4.18123        0.68789
B          3.16342       -2.42998        0.70688
B          2.04400       -3.29873        1.36428
B          2.76992       -0.86575       -0.05937
B          4.32131       -1.72886       -0.13488
B          3.98377       -0.37865       -1.05310
B          1.57899       -1.55816        0.81642
B          0.39385        2.87787       -0.57988
B         -3.20418       -0.34489       -0.98269
B          1.36446        0.03905       -0.46530
B         -4.79758        1.48316        0.73659
B          4.37590        1.95189        0.84261
B          4.76617        0.59785       -0.04648
B          5.58160       -0.84450       -0.49870
B          6.37079        0.21281        0.23933
B          5.78493        1.40892        0.94877
B         -1.67831       -0.80830       -1.51511
B          1.77029       -2.98970       -0.32383
B         -0.95636        2.28724       -1.34216
B         -5.58102        0.25458        1.10911
B         -5.37595       -1.25823        0.96166
B         -4.71927       -2.62119        0.88344
B         -0.20967       -0.39347       -1.13644
