45
isomer_3656.log	Energy: -113772.6710058
B         -3.16875        0.01372       -1.75176
B         -3.82995       -1.53391       -0.85916
B         -2.95480       -2.72454       -0.22543
B         -1.24002       -2.11646       -0.05493
B         -1.50641        0.39620       -1.65354
B          1.17713       -0.68689       -0.78450
B         -0.30563       -3.42453        0.69005
B         -4.15161        1.07414       -0.87642
B          0.45929       -2.09559       -0.16271
B         -4.92606       -0.41086       -1.16687
B         -1.90280       -3.40401        0.65700
B          1.22321       -3.41449        0.53732
B          2.11322       -2.10058       -0.18118
B          3.74327       -2.10550       -0.19939
B          1.29703        2.15416       -1.52248
B          2.87032        2.27078       -0.97074
B          3.63349        0.84346       -0.50762
B          4.53859       -0.58076       -0.19900
B          5.24073        0.97414        0.17832
B          4.35092        2.25922       -0.10703
B          3.22195        3.18468        0.53389
B          1.63297        3.13668       -0.16768
B          2.00274        3.69090        1.29675
B         -0.87479        2.46292        1.05289
B          0.57078        3.23921        1.17451
B         -1.09787        1.38322       -0.17642
B         -2.22389        1.59995        1.28083
B         -2.54383        0.43920       -0.11389
B          0.11463        2.41025       -0.31083
B         -2.13387       -1.16457       -1.07831
B          2.92961       -0.67145       -0.83796
B          0.15048        0.84442       -1.34227
B          2.86321       -3.30179        0.71865
B         -5.66147        0.41384       -0.09185
B         -3.76243        1.71249        0.52561
B         -2.74617        0.00808        1.68040
B         -3.98992        0.98888        2.03758
B         -5.28743        0.99180        1.26303
B          2.04528        0.69614       -1.22647
B         -4.19432       -0.28940        0.56110
B         -0.41391       -0.84601       -0.94276
B          4.26177       -2.88681        1.12229
B          5.26551       -1.75147        0.81528
B          5.87984       -0.36205        0.63160
B         -2.67005       -1.31681        0.75413
