45
isomer_3659.log	Energy: -113378.2882009
B         -2.48579        1.72994        0.58129
B         -2.43953        3.42491       -0.11259
B         -1.07091        4.18864       -0.29472
B          0.37559        3.44664        0.36761
B         -1.12528        0.99881        1.04352
B          1.71145        0.84254        0.74130
B          1.76810        4.15459       -0.43973
B         -3.85966        0.97717        0.24340
B          1.78477        2.56099        0.39086
B         -3.74231        2.57206       -0.19974
B          0.37526        4.73222       -0.59086
B          3.12158        3.27214       -0.35416
B          3.15471        1.69541        0.21653
B          4.59684        0.78423        0.03300
B          0.15537       -1.84604        1.16290
B          1.61809       -2.52796        0.58759
B          3.02483       -1.71038        0.31578
B          4.42492       -0.85495       -0.18082
B          4.32613       -2.50232       -0.61355
B          2.92031       -3.23541       -0.23077
B          1.55258       -4.04211       -0.45262
B          0.15662       -3.27295        0.11134
B          0.20034       -4.56289       -0.84159
B         -2.59553       -3.21424       -0.57032
B         -1.24402       -3.97579       -0.72415
B         -2.61696       -1.71521        0.73449
B         -3.78945       -2.29569       -0.44332
B         -3.86985       -0.79257        0.21733
B         -1.42075       -2.88705        0.53608
B         -1.11239        2.63298        0.48928
B          3.22401       -0.02040        0.64356
B         -1.36048       -0.57323        1.24646
B          4.42721        2.39720       -0.67898
B         -5.09254        1.78939       -0.64872
B         -5.14970        0.13757       -0.28045
B         -5.12907       -1.45833       -0.77994
B         -6.17983       -0.53852       -1.40096
B         -6.15924        0.93539       -1.34187
B          1.62012       -0.81186        0.98703
B         -1.39384       -1.98779        1.84853
B          0.37445        1.89148        0.95695
B          5.48814        1.41052       -1.14332
B          5.70220       -0.11717       -1.09576
B          5.49496       -1.66290       -1.06598
B          0.23858        0.03097        1.03011
