45
isomer_3661.log	Energy: -113092.7665958
B         -2.64719        1.84620        0.48869
B         -2.63527        3.51742        0.07578
B         -1.24348        4.36639       -0.15968
B          0.21612        3.53305        0.32123
B         -1.25084        1.19620        0.76985
B          1.59578        0.86972        0.81339
B          1.63571        4.24974       -0.36859
B         -3.93497        0.87434        0.34831
B          1.62842        2.56447        0.22189
B         -3.95636        2.54209       -0.06783
B          0.23028        4.87952       -0.47150
B          2.98143        3.33393       -0.37458
B          3.01237        1.73895        0.17131
B          4.39090        0.84911       -0.28372
B          0.30214       -1.88492        0.74917
B          1.68408       -2.54656        0.24711
B          3.02899       -1.68561        0.23039
B          4.37495       -0.79147       -0.24398
B          4.40376       -2.45241       -0.54870
B          3.04550       -3.30939       -0.28238
B          1.72133       -4.24480       -0.29684
B          0.30210       -3.51931        0.32376
B          0.32523       -4.88559       -0.45212
B         -2.51955       -3.57012       -0.02919
B         -1.15208       -4.39505       -0.20432
B         -2.53154       -1.88046        0.33836
B         -3.85716       -2.60374       -0.17863
B         -3.90480       -0.98279        0.29156
B         -1.15928       -2.80284        0.50785
B         -1.25066        2.83057        0.58008
B          3.09764        0.08710        0.56863
B         -1.10189       -1.14983        0.59525
B          4.38293        2.52394       -0.62496
B         -5.17190        1.65481       -0.58708
B         -5.11599       -0.02331       -0.36744
B         -5.11271       -1.72845       -0.63585
B         -6.22541       -0.79865       -1.21423
B         -6.26437        0.69917       -1.21069
B          1.61820       -0.84251        0.83566
B         -0.50177        0.39951        0.07944
B          0.29997        1.91801        0.81256
B          5.61113        1.61624       -0.81334
B          5.76262        0.03522       -0.80843
B          5.60871       -1.53507       -0.78448
B          0.27690       -0.49282        1.63828
