45
isomer_3662.log	Energy: -113439.3410156
B         -2.48740       -1.67106       -0.59389
B         -2.78342       -3.16819        0.63556
B         -1.50880       -4.12576        0.69258
B         -0.13965       -3.35440       -0.51875
B         -1.01395       -0.53917       -1.25759
B          1.79685       -0.81334       -1.07165
B          1.26225       -3.99577        0.24665
B         -3.80131       -0.64513       -0.11088
B          1.39820       -2.45938       -0.53404
B         -3.92360       -2.16070        0.48969
B         -0.08611       -4.56462        0.56909
B          2.68395       -3.30274        0.21482
B          2.97791       -1.83126       -0.30784
B          4.41489       -1.04715        0.26530
B          0.56980        1.78532       -0.96202
B          2.02357        2.45420       -0.42036
B          3.39171        1.57403       -0.26832
B          4.72370        0.58455        0.02894
B          4.64809        2.21323        0.70321
B          3.39613        3.15605        0.28021
B          2.08977        4.06849        0.32158
B          0.64187        3.42101       -0.42017
B          0.71955        4.74032        0.48139
B         -2.15309        3.49602        0.10965
B         -0.70637        4.23915        0.21330
B         -2.32077        1.95649       -0.50167
B         -3.59184        2.79773        0.21299
B         -3.74581        1.12752       -0.18345
B         -0.86328        2.68527       -0.63101
B         -1.87137       -3.27539       -0.65177
B          3.32524       -0.13200       -0.67564
B         -0.98809        1.03416       -1.08967
B          4.08659       -2.64221        0.73718
B         -5.19580       -1.28187        0.76052
B         -5.11788        0.38289        0.37310
B         -4.94459        2.07032        0.65909
B         -6.07544        1.22058        1.36012
B         -6.21160       -0.27816        1.36555
B          1.87132        0.81369       -0.84022
B         -2.37511        0.16956       -0.64675
B          0.37710       -1.41589       -1.39911
B          5.30403       -1.89059        1.27752
B          5.65799       -0.38058        1.25431
B          5.58406        1.16166        1.26020
B         -1.03928       -2.17689       -1.42776
