45
isomer_3663.log	Energy: -112180.7579505
B         -2.65365       -1.65672       -0.44780
B         -2.64129       -3.29587       -0.07279
B         -1.23262       -4.12304        0.16852
B          0.22241       -3.28528       -0.37798
B         -1.19632       -0.76009       -0.74970
B          1.67853       -0.78191       -0.83298
B          1.61421       -4.06930        0.30945
B         -4.11462       -0.78662       -0.37262
B          1.60305       -2.38816       -0.27740
B         -4.05098       -2.47986        0.07895
B          0.19098       -4.73701        0.44575
B          3.04390       -3.21865        0.32757
B          3.06662       -1.59540       -0.23383
B          4.52384       -0.78038        0.26649
B          0.23771        1.77080       -0.89261
B          1.61799        2.46752       -0.26321
B          3.07665        1.66552       -0.22430
B          4.52883        0.83864        0.27122
B          4.36584        2.39608        0.52086
B          3.06392        3.28557        0.34658
B          1.63948        4.14509        0.33345
B          0.24290        3.37369       -0.35852
B          0.22039        4.82075        0.47367
B         -2.62069        3.40012       -0.05323
B         -1.20696        4.21718        0.19289
B         -2.64313        1.76329       -0.43781
B         -4.03538        2.59192        0.09377
B         -4.10942        0.90178       -0.36769
B         -1.21034        2.58364       -0.59692
B         -1.22594       -2.48493       -0.61173
B          3.15497       -0.06404       -0.62593
B         -1.19134        0.85949       -0.74496
B          4.35128       -2.33822        0.50703
B         -5.37317       -1.67251        0.58430
B         -5.36509       -0.04069        0.35515
B         -5.36251        1.78979        0.59442
B         -6.53125        0.83682        1.19292
B         -6.53602       -0.71589        1.18839
B          1.68359        0.86410       -0.82817
B          0.34359       -2.22597        0.36219
B          0.22709       -1.67930       -0.90269
B          5.86188       -1.63245        0.72448
B          6.06216        0.07999        0.79464
B          5.86970        1.81054        0.80513
B          0.80919        0.34997       -0.66496
