45
isomer_3664.log	Energy: -113675.8810469
B         -2.60902        0.01719       -0.74585
B         -2.51652       -3.30334        0.03587
B         -1.16101       -4.14937        0.10587
B          0.26671       -3.40352       -0.54098
B         -1.17198       -0.85196       -1.06992
B          1.71549       -0.84330       -0.78049
B          1.63834       -4.17118        0.25734
B         -3.98457       -0.84330       -0.22394
B          1.72131       -2.55173       -0.42794
B         -3.87091       -2.48312        0.27560
B          0.21537       -4.74853        0.35063
B          3.00559       -3.34351        0.27867
B          3.12702       -1.73532       -0.21839
B          4.54709       -0.89758        0.14168
B          0.37156        1.82435       -1.11904
B          1.80418        2.53172       -0.49069
B          3.17464        1.67909       -0.26134
B          4.53002        0.79391        0.24369
B          4.40841        2.44274        0.74949
B          3.09463        3.27899        0.26530
B          1.75176        4.14402        0.24377
B          0.35433        3.38415       -0.51540
B          0.34587        4.74611        0.34948
B         -2.42452        3.33651        0.03911
B         -1.04398        4.15754        0.12150
B         -2.50645        1.76009       -0.48565
B         -3.80731        2.53907        0.29350
B         -3.95516        0.91312       -0.21504
B         -1.11714        2.59055       -0.76436
B         -1.18794       -2.57745       -0.78951
B          3.29339       -0.01713       -0.60939
B         -1.12769        0.84878       -1.03950
B          4.32273       -2.50196        0.77140
B         -5.10483       -1.64856        0.84552
B         -5.19450        0.04762        0.52426
B         -5.05861        1.74190        0.86580
B         -6.08373        0.81780        1.61329
B         -6.10507       -0.70277        1.60610
B          1.79061        0.83018       -0.91733
B         -2.56471       -1.72940       -0.53271
B          0.31138       -1.83006       -1.08576
B          5.36775       -1.57079        1.33985
B          5.61889       -0.03559        1.30606
B          5.47541        1.51687        1.30142
B          0.34313       -0.00284       -1.09197
