45
isomer_3666.log	Energy: -113458.7451872
B         -2.56907       -1.60752       -0.43822
B         -2.52508       -3.31401        0.04836
B         -1.22695       -4.12561       -0.18851
B          0.23089       -3.32914       -0.94025
B         -1.21720       -0.74038       -0.83288
B          1.57843       -0.75277       -0.51439
B          1.55551       -4.14139        0.00649
B         -3.89516       -0.85361       -0.10480
B          1.40887       -2.41405       -0.04793
B         -3.80581       -2.45294        0.31080
B          0.18040       -4.71609       -0.07797
B          2.87340       -3.28704        0.30086
B          3.00018       -1.71892       -0.11017
B          4.46225       -0.86811        0.10859
B          0.32637        1.81857       -1.21112
B          1.71024        2.56946       -0.47676
B          3.08771        1.74629       -0.22208
B          4.36070        0.78732        0.39802
B          4.33481        2.46449        0.76565
B          3.01609        3.32225        0.26889
B          1.64828        4.15870        0.19904
B          0.27482        3.43655       -0.65429
B          0.22470        4.70729        0.31545
B         -2.53714        3.38288       -0.05467
B         -1.18841        4.14695        0.01974
B         -2.54868        1.66199       -0.63421
B         -3.79775        2.51468        0.20175
B         -3.90549        0.91299       -0.15317
B         -1.20071        2.57734       -0.74562
B         -1.08826       -2.40812       -0.25755
B          3.14992       -0.00035       -0.49996
B         -1.20246        0.93710       -1.06922
B          4.20820       -2.50311        0.76263
B         -5.11967       -1.60869        0.86833
B         -5.15242        0.03688        0.44955
B         -5.09155        1.69084        0.77281
B         -6.12526        0.79786        1.52239
B         -6.13223       -0.69882        1.55581
B          1.74955        0.92371       -0.98512
B          0.24718        0.00405       -1.24553
B          0.28778       -1.73383       -1.45944
B          5.31262       -1.56369        1.26391
B          5.57307       -0.04098        1.27219
B          5.42817        1.53583        1.27963
B          0.09911       -1.25487        0.23296
