45
isomer_3667.log	Energy: -113420.4498574
B         -2.50609        1.75203        0.26552
B         -2.37691        3.35470       -0.30130
B         -0.93086        4.14059       -0.33936
B          0.41600        3.29159        0.25534
B         -1.19059        0.79711        0.68883
B          1.68514        0.68972        1.10215
B          1.89576        4.06952       -0.12800
B         -3.88389        0.97938       -0.01966
B          1.85553        2.43751        0.58428
B         -3.79667        2.59168       -0.39778
B          0.50773        4.72260       -0.40570
B          3.22200        3.17847        0.03044
B          3.20592        1.54263        0.53981
B          4.55127        0.67383        0.04073
B          0.21630       -1.76207        0.91586
B          1.52362       -2.59012        0.15658
B          2.93599       -1.73989       -0.04573
B          4.44635       -1.02016       -0.08518
B          4.19674       -2.54079       -0.89736
B          2.81668       -3.37374       -0.50173
B          1.43918       -4.18087       -0.40542
B          0.11736       -3.42164        0.56805
B         -0.01964       -4.69478       -0.42176
B         -2.70785       -3.19651        0.06938
B         -1.35781       -4.10105       -0.04125
B         -2.67928       -1.59862        0.72886
B         -3.96464       -2.28439       -0.10592
B         -3.97718       -0.69352        0.26098
B         -1.31380       -2.51865        0.66318
B         -1.10705        2.55741        0.37972
B          3.15659       -0.12529        0.60899
B         -1.22251       -0.78561        1.02597
B          4.57111        2.37322       -0.34106
B         -5.18072        1.80625       -0.76914
B         -5.31972        0.20728       -0.11148
B         -5.35432       -1.44855       -0.45741
B         -6.43917       -0.58919       -1.05974
B         -6.30035        0.88999       -1.26059
B          1.48543       -0.81908        0.15341
B          0.18066        0.14132       -0.10468
B          0.33165        1.68437        0.77275
B          5.60659        1.43805       -0.90803
B          5.66037       -0.10082       -1.04925
B          5.33179       -1.62620       -1.26904
B          0.27328       -0.10772        1.61575
