45
isomer_3668.log	Energy: -111763.8784072
B          2.61215       -1.66000        0.35773
B          2.60639       -3.29402       -0.03920
B          1.20087       -4.12486       -0.28624
B         -0.25613       -3.30173        0.27699
B          1.15162       -0.77474        0.67718
B         -1.72275       -0.81193        0.77109
B         -1.64671       -4.08335       -0.41561
B          4.06853       -0.78174        0.28869
B         -1.64154       -2.41020        0.19371
B          4.01146       -2.46906       -0.18534
B         -0.22076       -4.74211       -0.56627
B         -3.08062       -3.23964       -0.41687
B         -3.10913       -1.62419        0.16635
B         -4.57227       -0.80978       -0.31743
B         -0.29425        1.74686        0.85952
B         -1.68037        2.44510        0.24478
B         -3.13521        1.63647        0.20065
B         -4.58521        0.80912       -0.30040
B         -4.43084        2.37055       -0.52973
B         -3.13264        3.26408       -0.34847
B         -1.71240        4.13040       -0.32922
B         -0.30938        3.35672        0.34702
B         -0.29719        4.81490       -0.46575
B          2.55284        3.40144        0.03122
B          1.13417        4.21471       -0.19853
B          2.58480        1.75974        0.39370
B          3.97090        2.60232       -0.13199
B          4.05503        0.90653        0.30645
B          1.14863        2.57077        0.56926
B          1.18916       -2.49740        0.51596
B         -3.20349       -0.09868        0.57931
B          1.13867        0.84471        0.69421
B         -4.39299       -2.36337       -0.57952
B          5.32770       -1.64847       -0.68482
B          5.31250       -0.01992       -0.43375
B          5.30001        1.81357       -0.64841
B          6.47109        0.87452       -1.26409
B          6.48350       -0.67807       -1.28042
B         -1.73591        0.83395        0.78840
B          0.51796       -2.11732        1.47764
B         -0.26667       -1.70296        0.82323
B         -5.90787       -1.66225       -0.78173
B         -6.11682        0.04995       -0.82813
B         -5.93290        1.78143       -0.81612
B          0.54607        0.68792        1.28495
