45
isomer_3669.log	Energy: -113096.6536505
B         -2.59431        1.73597        0.43827
B         -2.50692        3.40399        0.03242
B         -1.14431        4.22564       -0.14186
B          0.29975        3.43529        0.42840
B         -1.11389        0.89476        0.71090
B          1.70240        0.86459        0.85818
B          1.68798        4.18214       -0.26887
B         -4.03193        0.91972        0.31161
B          1.68919        2.52950        0.32689
B         -3.91035        2.52299       -0.17322
B          0.28694        4.80275       -0.40136
B          3.06280        3.28788       -0.29605
B          3.11735        1.72696        0.20986
B          4.49576        0.87530       -0.29300
B          0.32428       -1.40520        0.94576
B          1.74101       -2.47922        0.26885
B          3.09289       -1.67734        0.14725
B          4.42001       -0.76435       -0.34331
B          4.40163       -2.41505       -0.78217
B          2.98093       -3.27204       -0.44038
B          1.65149       -4.21369       -0.51190
B          0.40137       -3.52895        0.26763
B          0.20853       -4.79790       -0.57595
B         -2.62155       -3.33429        0.06871
B         -1.25450       -4.17863       -0.22539
B         -2.73563       -1.56299        0.45227
B         -4.03978       -2.38196       -0.22378
B         -4.08600       -0.77108        0.27602
B         -1.52204       -2.44952        0.72830
B         -1.20684        2.63114        0.61663
B          3.21156        0.08071        0.56108
B         -1.23361       -0.67556        0.74298
B          4.46613        2.55756       -0.59448
B         -5.20316        1.83448       -0.71367
B         -5.25860        0.15963       -0.50213
B         -5.28733       -1.56143       -0.76392
B         -6.36369       -0.56978       -1.41224
B         -6.34601        0.92597       -1.39931
B          1.73473       -0.78036        0.84144
B          0.18443        0.06556        1.49938
B          0.32781        1.76158        0.93733
B          5.70299        1.67309       -0.90679
B          5.83090        0.09185       -0.98500
B          5.59694       -1.52697       -1.04886
B         -0.15937       -2.84274        1.33347
