45
isomer_0367.log	Energy: -113379.5603816
B          2.45344        1.79685       -0.56958
B          2.42826        3.51055       -0.13846
B          1.05231        4.27069        0.00883
B         -0.39060        3.49798       -0.59868
B          1.12651        0.98780       -1.05752
B         -1.75451        0.88434       -1.01052
B         -1.74099        4.18656        0.27449
B          3.84090        1.05392       -0.21498
B         -1.79497        2.59237       -0.59355
B          3.69764        2.66520        0.19809
B         -0.34789        4.79205        0.36315
B         -3.05629        3.27407        0.31548
B         -3.12843        1.72830       -0.23367
B         -4.41377        0.75753        0.37987
B         -0.26995       -1.68455       -1.13191
B         -1.61538       -2.49099       -0.57661
B         -3.02945       -1.70181       -0.20466
B         -4.46081       -0.90297        0.17183
B         -4.19040       -2.53717        0.76296
B         -2.84920       -3.30749        0.26639
B         -1.47975       -4.09124        0.20511
B         -0.12657       -3.28060       -0.58394
B         -0.01944       -4.64476        0.31709
B          2.53756       -3.18980        0.10721
B          1.32454       -4.01189        0.72383
B          2.60591       -1.52705       -0.61617
B          3.85503       -2.26905        0.21718
B          3.90454       -0.67168       -0.21124
B          1.26852       -2.32492       -0.85075
B          1.10427        2.69165       -0.78926
B         -3.20479       -0.01269       -0.49676
B          1.34819       -0.60056       -1.07180
B         -4.35502        2.40932        0.80604
B          4.94916        1.88239        0.87277
B          4.89442        0.22655        0.71648
B          5.06504       -1.43026        0.89028
B          5.97979       -0.49653        1.69136
B          5.94943        1.02117        1.66098
B         -1.67568       -0.76249       -0.88626
B          1.32407       -4.03925       -0.86876
B         -0.37900        1.92948       -1.19955
B         -5.41386        1.46498        1.36862
B         -5.51642       -0.09511        1.38301
B         -5.23241       -1.62465        1.36855
B         -0.26397        0.07376       -1.16500
