45
isomer_3670.log	Energy: -113377.6489840
B         -2.21347        1.92741        0.41316
B         -1.91526        3.39369       -0.38753
B         -0.42965        4.04789       -0.45087
B          0.80676        3.21086        0.36195
B         -0.96408        0.83356        0.90868
B          1.94211        0.62287        0.98122
B          2.35006        3.84894       -0.16392
B         -3.70113        1.30186        0.29846
B          2.17952        2.25919        0.64876
B         -3.35091        2.80397       -0.40657
B          1.03246        4.51868       -0.54205
B          3.61435        2.88687        0.01403
B          3.53769        1.32926        0.57485
B          4.80290        0.23158        0.27621
B          0.09556       -1.51375        1.23702
B          1.17951       -2.28958        0.12034
B          2.74985       -1.87184        0.05484
B          4.31115       -1.28932       -0.26505
B          3.81495       -2.76704       -0.98932
B          2.23988       -3.18646       -0.79683
B          0.68635       -3.59171       -0.93973
B         -0.50616       -2.51592       -0.12151
B         -0.74120       -4.00415       -0.89054
B         -2.97365       -2.94076        0.92699
B         -1.93183       -3.66185       -0.02779
B         -2.73399       -1.04934        1.16804
B         -4.01135       -1.93967        0.29242
B         -4.11360       -0.22934        0.63474
B         -1.46034       -2.20102        1.42728
B         -0.66549        2.43578        0.29564
B          3.30870       -0.40693        0.81709
B         -1.16863       -0.76391        0.07758
B          4.85468        1.88293       -0.32925
B         -4.68047        2.12258       -1.05230
B         -4.57630        0.46199       -0.81581
B         -5.16584       -1.09365       -0.41868
B         -5.99821       -0.15595       -1.33963
B         -5.70253        1.28008       -1.73079
B          1.67509       -0.94412        1.09670
B         -2.19285       -1.94944       -0.32442
B          0.62749        1.57106        0.84797
B          5.72655        0.79147       -0.92532
B          5.71561       -0.72845       -1.05709
B          5.18965       -2.17426       -1.26881
B         -1.24394       -0.49407        1.76985
