45
isomer_3671.log	Energy: -113394.9561250
B         -2.69827       -1.61589       -0.94705
B         -2.51427       -3.09816       -0.05835
B         -1.30725       -3.64266        0.80234
B          0.14612       -3.04361        0.04277
B         -1.23038       -0.63772       -0.69683
B          1.74623       -0.86976       -1.07730
B          1.50328       -3.89124        0.68479
B         -4.05760       -0.71518       -0.56056
B          1.68392       -2.51090       -0.50956
B         -3.95922       -2.27897       -0.02631
B          0.10575       -4.23926        1.12878
B          2.91263       -3.22518        0.37073
B          3.12687       -1.76961       -0.41489
B          4.49052       -0.89138        0.10096
B          0.33247        1.80725       -0.92938
B          1.82649        2.51498       -0.49315
B          3.23933        1.66838       -0.33670
B          4.68786        0.73975       -0.17453
B          4.53308        2.37282        0.51766
B          3.16841        3.20123        0.24997
B          1.74983        4.02647        0.42747
B          0.37874        3.36045       -0.29381
B          0.34358        4.58641        0.72011
B         -2.44437        3.27617        0.29496
B         -1.10123        4.05721        0.47633
B         -2.57497        1.68874       -0.41239
B         -3.84784        2.40788        0.38432
B         -4.00861        0.95188       -0.43490
B         -1.15615        2.57496       -0.41349
B         -1.22418       -2.02205        0.24607
B          3.33505       -0.05028       -0.76546
B         -1.07216        0.94370       -0.77190
B          4.37497       -2.49746        0.62512
B         -5.21859       -1.56442        0.47632
B         -5.32823        0.10697        0.18494
B         -5.21707        1.73395        0.69888
B         -6.38302        0.82640        1.19645
B         -6.34308       -0.65434        1.17110
B          1.82162        0.78641       -0.88955
B         -1.33812       -2.26748       -1.46919
B          0.20820       -1.79328       -1.11471
B          5.56470       -1.67126        1.01058
B          5.78574       -0.11895        0.97853
B          5.61211        1.41004        0.96322
B          0.34712        0.02697       -0.96243
