45
isomer_3672.log	Energy: -112440.0744665
B          2.52094        1.83866       -0.44505
B          2.45157        3.47206       -0.06813
B          1.02372        4.26341        0.17161
B         -0.40368        3.40165       -0.37012
B          1.08842        0.91699       -0.75575
B         -1.79115        0.86691       -0.83074
B         -1.80987        4.14497        0.31550
B          4.02588        1.01490       -0.35915
B         -1.76630        2.47563       -0.27124
B          3.87557        2.69307        0.08458
B         -0.40416        4.82835        0.44680
B         -3.21725        3.26154        0.33270
B         -3.19999        1.64260       -0.22949
B         -4.63457        0.78136        0.26415
B         -0.28510       -1.65427       -0.90409
B         -1.63406       -2.39447       -0.25761
B         -3.10797       -1.63079       -0.22127
B         -4.58103       -0.83854        0.26542
B         -4.38005       -2.39988        0.52921
B         -3.02498       -3.25409        0.35255
B         -1.57301       -4.08156        0.35629
B         -0.22180       -3.27366       -0.34798
B         -0.14167       -4.70336        0.48914
B          2.80313       -3.27891        0.00662
B          1.28456       -4.10982        0.22387
B          2.72766       -1.56033       -0.42307
B          4.13719       -2.35984        0.13007
B          4.11297       -0.66582       -0.34792
B          1.19711       -2.38638       -0.60192
B          1.06723        2.63464       -0.60848
B         -3.24097        0.10210       -0.62443
B          1.15959       -0.65393       -0.75528
B         -4.52244        2.35468        0.51651
B          5.23061        1.94278        0.59737
B          5.30881        0.30359        0.37594
B          5.39705       -1.49885        0.62015
B          6.49432       -0.50145        1.21401
B          6.43543        1.03109        1.20734
B         -1.74812       -0.77083       -0.82557
B          1.80007       -2.85190       -0.49046
B         -0.36394        1.79605       -0.90098
B         -5.97261        1.57014        0.71749
B         -6.10953       -0.11631        0.78027
B         -5.86368       -1.80854        0.79209
B         -0.14388       -0.54365       -0.15093
