45
isomer_3673.log	Energy: -113406.5718373
B          2.20317        2.08653       -0.34170
B          1.88300        3.57254        0.31384
B          0.37324        4.23302        0.30062
B         -0.87091        3.35323       -0.49075
B          0.92919        1.05542       -1.00253
B         -1.85859        0.61958       -0.85666
B         -2.40792        3.92887        0.08824
B          3.77738        1.45788       -0.12892
B         -2.17869        2.30042       -0.65617
B          3.30900        2.91649        0.63581
B         -1.10455        4.66225        0.40291
B         -3.64383        2.92857       -0.08119
B         -3.49895        1.33458       -0.51466
B         -4.77735        0.26631       -0.22020
B         -0.09191       -1.69703       -1.03738
B         -1.28592       -2.50851       -0.09169
B         -2.77671       -1.86818        0.06306
B         -4.33293       -1.25964        0.34993
B         -3.95483       -2.78210        1.01721
B         -2.43091       -3.32942        0.77699
B         -0.94413       -3.93415        0.78539
B          0.34160       -3.12458       -0.13771
B          0.50178       -4.46265        0.75555
B          3.01007       -3.29416       -0.54966
B          1.77866       -3.96683        0.16012
B          2.63859       -1.11499       -1.13825
B          4.01090       -1.95952       -0.26783
B          3.93876       -0.29367       -0.35296
B          1.44752       -2.31757       -1.10926
B          0.67400        2.70633       -0.45400
B         -3.24412       -0.38598       -0.65869
B          1.06848       -0.53638       -1.03401
B         -4.86065        1.93378        0.30762
B          4.62230        2.17527        1.20795
B          4.81265        0.55234        0.78703
B          4.93348       -1.16491        0.76277
B          5.75212       -0.26328        1.80238
B          5.66025        1.23338        1.95825
B         -1.61009       -0.96138       -0.87833
B          3.12560       -2.43230       -1.74383
B         -0.62574        1.71950       -0.96464
B         -5.75308        0.85332        0.92453
B         -5.77195       -0.66049        1.05169
B         -5.30030       -2.13072        1.27475
B          2.53232        0.55885       -1.01563
