45
isomer_3674.log	Energy: -113379.2202257
B         -2.14535       -1.50246       -0.64314
B         -2.04133       -3.33813        0.29034
B         -0.57858       -3.79523        0.50951
B          0.79742       -3.33844       -0.64025
B         -0.90333       -1.07198       -1.67923
B          1.78659       -0.63488       -0.86344
B          2.22978       -3.80633        0.15839
B         -3.64616       -0.87779       -0.28141
B          2.13754       -2.34554       -0.81219
B         -2.96012       -2.14845        0.80152
B          0.89924       -4.24784        0.68503
B          3.54566       -2.87259       -0.04791
B          3.35643       -1.29110       -0.39235
B          4.61568       -0.20174        0.04140
B          0.04715        1.48368       -0.84604
B          1.28170        2.56639       -0.46574
B          2.84237        2.09223       -0.23863
B          4.35196        1.42235        0.12165
B          3.87313        2.99578        0.76390
B          2.42035        3.57296        0.30631
B          0.89307        4.15287        0.31128
B         -0.28142        3.08869       -0.32714
B         -0.58182        4.45664        0.37483
B         -3.02580        2.64407       -0.37514
B         -1.85682        3.57191        0.00450
B         -2.95437        0.77569       -0.67786
B         -4.34862        1.94022       -0.42291
B         -4.49727        0.38703       -0.94296
B         -1.55261        1.92346       -0.52544
B         -0.79922       -2.60798       -0.78238
B          3.17850        0.42511       -0.65260
B         -1.26762        0.31389       -0.95115
B          4.71818       -1.88125        0.48647
B         -4.19980       -1.36665        1.41439
B         -5.08076       -0.32642        0.41203
B         -5.64673        1.24424        0.15102
B         -6.15399        0.56175        1.38916
B         -5.34324       -0.53767        2.00605
B          1.55327        0.95416       -0.82351
B         -1.18017       -1.98346        0.87921
B          0.64257       -1.68347       -1.35112
B          5.59527       -0.81816        1.12861
B          5.52565        0.75457        1.21589
B          5.07071        2.23576        1.30379
B         -0.31706       -0.88587       -0.01273
