45
isomer_3675.log	Energy: -113557.9303322
B          2.54430        1.69961       -0.65195
B          2.48428        3.36219       -0.35106
B          1.08295        4.14304       -0.16842
B         -0.34427        3.34631       -0.62376
B          1.04754        0.80143       -0.78584
B         -1.74044        0.79452       -0.75426
B         -1.72745        4.09816        0.16823
B          4.04987        0.84370       -0.52218
B         -1.78080        2.45270       -0.34665
B          3.80423        2.59728       -0.05975
B         -0.29515        4.71309        0.18842
B         -3.09558        3.27886        0.23280
B         -3.23004        1.67752       -0.29320
B         -4.62700        0.84564        0.08550
B         -0.37880       -1.63985       -0.94402
B         -1.78103       -2.45260       -0.34667
B         -3.23039       -1.67743       -0.29340
B         -4.62722       -0.84535        0.08518
B         -4.44759       -2.44654        0.69091
B         -3.09584       -3.27866        0.23297
B         -1.72794       -4.09817        0.16803
B         -0.34464       -3.34636       -0.62394
B         -0.29567       -4.71300        0.18864
B          2.48401       -3.36248       -0.35094
B          1.08254       -4.14328       -0.16859
B          2.54422       -1.69985       -0.65172
B          3.80392       -2.59750       -0.05913
B          4.04986       -0.84401       -0.52199
B          1.08915       -2.50796       -0.89092
B          1.08936        2.50769       -0.89095
B         -3.32911        0.00015       -0.64681
B          1.04774       -0.80177       -0.78581
B         -4.44719        2.44678        0.69124
B          4.72104        1.68449        0.86476
B          5.29689       -0.00006        0.35940
B          4.72105       -1.68461        0.86493
B          5.18814       -0.74797        1.96031
B          5.18822        0.74803        1.96030
B         -1.74067       -0.79452       -0.75407
B          3.69025       -0.00004        1.11766
B         -0.37860        1.64005       -0.94431
B         -5.52738        1.52872        1.23344
B         -5.74085        0.00023        1.20768
B         -5.52735       -1.52819        1.23355
B          2.45143        0.00004       -0.10361
