45
isomer_3677.log	Energy: -112593.1841414
B          2.64519       -1.67572        0.39944
B          2.63285       -3.31288        0.01585
B          1.22420       -4.13866       -0.23032
B         -0.23097       -3.30366        0.32001
B          1.18782       -0.78056        0.70548
B         -1.68706       -0.80258        0.78756
B         -1.62257       -4.08395       -0.37204
B          4.10626       -0.80536        0.32937
B         -1.61150       -2.40592        0.22361
B          4.04266       -2.49620       -0.13109
B         -0.19934       -4.75106       -0.51129
B         -3.05219       -3.23311       -0.38625
B         -3.07499       -1.61281        0.18364
B         -4.53196       -0.79507       -0.31296
B         -0.24606        1.74966        0.86110
B         -1.62605        2.44978        0.23484
B         -3.08476        1.64811        0.19118
B         -4.53681        0.82395       -0.30921
B         -4.37361        2.38266       -0.55063
B         -3.07168        3.27113       -0.37121
B         -1.64719        4.13045       -0.35305
B         -0.25093        3.35532        0.33541
B         -0.22799        4.80672       -0.48919
B          2.61278        3.38312        0.03134
B          1.19921        4.20157       -0.21104
B          2.63495        1.74430        0.40735
B          4.02746        2.57559       -0.11936
B          4.10120        0.88304        0.33327
B          1.20216        2.56392        0.57022
B          1.21735       -2.50466        0.55849
B         -3.16337       -0.08352        0.58371
B          1.18297        0.83902        0.70922
B         -4.35942       -2.35164       -0.56158
B          5.36510       -1.68633       -0.63170
B          5.35706       -0.05572       -0.39401
B          5.35472        1.77598       -0.62370
B          6.52361        0.82607       -1.22674
B          6.52826       -0.72665       -1.23033
B         -1.69199        0.84343        0.79137
B         -0.31066       -0.23035        2.37845
B         -0.23572       -1.70044        0.85312
B         -5.86989       -1.64462       -0.77590
B         -6.07001        0.06817       -0.83718
B         -5.87741        1.79874       -0.83854
B         -0.49166       -0.93924       -0.33669
