45
isomer_3679.log	Energy: -113123.5762371
B          2.40477        1.77694        0.05961
B          2.49284        3.49658        0.25251
B          1.17586        4.35307        0.26372
B         -0.27123        3.60535       -0.55158
B          0.91669        1.06220       -0.32071
B         -1.47286        0.88946       -0.78094
B         -1.64869        4.31112        0.12708
B          3.81312        0.99932       -0.02378
B         -1.68177        2.65677       -0.55073
B          3.84408        2.59794        0.42560
B         -0.26667        4.90951        0.36998
B         -3.01836        3.44077        0.10398
B         -3.01501        1.84795       -0.20135
B         -4.37455        0.96260        0.24334
B         -0.36184       -1.91181       -0.80340
B         -1.92761       -2.48510       -0.64681
B         -3.20733       -1.56997       -0.38928
B         -4.52699       -0.62629       -0.12371
B         -4.58077       -2.29498        0.39970
B         -3.33076       -3.19257       -0.10897
B         -2.09247       -4.22067       -0.00803
B         -0.56603       -3.45342       -0.19386
B         -0.85734       -4.97297        0.30837
B          2.88327       -3.05752        0.36386
B          0.50026       -4.38780        0.71302
B          2.56059       -1.58770       -0.58398
B          4.12142       -2.24967       -0.21337
B          3.87597       -0.69085       -0.26276
B          1.12830       -2.77222        0.02085
B          1.12353        2.70829       -0.28750
B         -3.05362        0.14467       -0.52471
B          0.29961       -0.37324       -0.55368
B         -4.39506        2.65655        0.51303
B          5.23845        1.84058        0.56305
B          5.21420        0.16229        0.23961
B          5.47162       -1.51777        0.05861
B          6.65059       -0.54774        0.45461
B          6.55382        0.94215        0.65453
B         -1.54120       -0.72286       -0.70853
B          1.83209       -3.81298        1.07937
B         -0.23304        1.94449       -1.01817
B         -5.57755        1.78161        0.90366
B         -5.76093        0.24268        0.94478
B         -5.53559       -1.28469        0.96924
B          1.19620       -1.60005       -1.17627
