45
isomer_0368.log	Energy: -112754.0646871
B         -2.59191        1.73059        0.40937
B         -2.57071        3.37204        0.04324
B         -1.16492        4.19781       -0.18059
B          0.28371        3.35942        0.36234
B         -1.15258        0.84652        0.71393
B          1.73568        0.83939        0.80774
B          1.67971        4.13943       -0.30847
B         -4.03285        0.86073        0.31729
B          1.67188        2.45782        0.26282
B         -3.96597        2.54854       -0.12031
B          0.26092        4.79696       -0.44413
B          3.10511        3.28485       -0.32556
B          3.12678        1.66093        0.22167
B          4.58499        0.83877       -0.27120
B          0.29226       -1.72335        0.84140
B          1.68241       -2.41491        0.21637
B          3.13301       -1.61420        0.19204
B          4.58325       -0.78391       -0.28587
B          4.43336       -2.34492       -0.55330
B          3.11657       -3.22765       -0.38857
B          1.69534       -4.08512       -0.39211
B          0.29824       -3.32162        0.29508
B          0.28287       -4.74414       -0.54028
B         -2.55654       -3.33031       -0.02830
B         -1.14198       -4.15112       -0.26787
B         -2.58030       -1.69830        0.36953
B         -3.95888       -2.50507       -0.17463
B         -4.03055       -0.83489        0.29660
B         -1.15497       -2.53477        0.53016
B         -1.17127        2.56391        0.58249
B          3.21181        0.11234        0.60335
B         -1.13473       -0.80930        0.68616
B          4.42930        2.40869       -0.50986
B         -5.27732        1.74667       -0.63814
B         -5.26938        0.11348       -0.42120
B         -5.26882       -1.69215       -0.67317
B         -6.41435       -0.74361       -1.26775
B         -6.42750        0.79982       -1.25520
B          1.73989       -0.81435        0.79276
B         -1.15757       -1.29089        2.10050
B          0.28814        1.74730        0.87224
B          5.90559        1.67108       -0.71418
B          6.09561       -0.01613       -0.78818
B          5.90646       -1.71831       -0.81080
B         -0.51979        0.30191       -0.15745
