45
isomer_3681.log	Energy: -111918.1921372
B         -2.60510       -1.62065       -0.40109
B         -2.61768       -3.25518       -0.00645
B         -1.22154       -4.10235        0.23832
B          0.24432       -3.29511       -0.32490
B         -1.13481       -0.75166       -0.72045
B          1.73887       -0.82152       -0.81668
B          1.62643       -4.09352        0.36551
B         -4.05131       -0.72592       -0.32967
B          1.63988       -2.41957       -0.24148
B         -4.01313       -2.41446        0.14195
B          0.19317       -4.73618        0.51637
B          3.06987       -3.26623        0.36682
B          3.11636       -1.65039       -0.21418
B          4.58907       -0.85341        0.26959
B          0.33960        1.75353       -0.90040
B          1.73407        2.43505       -0.28578
B          3.17962        1.60981       -0.24393
B          4.62048        0.76526        0.25482
B          4.48411        2.32803        0.48645
B          3.19605        3.23656        0.30746
B          1.78577        4.11906        0.29055
B          0.37350        3.36239       -0.38567
B          0.37858        4.81947        0.42915
B         -2.48779        3.43933       -0.06755
B         -1.05975        4.23603        0.16222
B         -2.53876        1.79861       -0.43230
B         -3.91475        2.65621        0.09567
B         -4.01856        0.96210       -0.34508
B         -1.09356        2.59344       -0.60786
B         -1.19188       -2.47401       -0.56161
B          3.22780       -0.12548       -0.62507
B         -1.10339        0.86756       -0.73523
B          4.39227       -2.40522        0.52965
B         -5.31954       -1.57960        0.64362
B         -5.28594        0.04902        0.39481
B         -5.25237        1.88194        0.61202
B         -6.43361        0.95545        1.22731
B         -6.46373       -0.59691        1.24148
B          1.77080        0.82413       -0.83170
B         -1.92332       -1.89632       -1.00987
B          0.27268       -1.69580       -0.86892
B          5.91522       -1.72172        0.73165
B          6.14373       -0.01208        0.78028
B          5.97957        1.72140        0.77083
B         -0.28131        0.09888        0.09933
