45
isomer_3684.log	Energy: -113288.2744381
B          2.58756       -1.54929        0.40325
B          2.51101       -3.22566        0.01791
B          1.17252       -4.19751       -0.05085
B         -0.28095       -3.40934        0.48967
B          1.15080       -0.73181        0.80849
B         -1.68981       -0.75924        0.87694
B         -1.63715       -4.13153       -0.29106
B          3.98536       -0.75877        0.34896
B         -1.70105       -2.50178        0.33051
B          3.93322       -2.33711       -0.21994
B         -0.24893       -4.76382       -0.37407
B         -3.01986       -3.22345       -0.33250
B         -3.11863       -1.68102        0.24321
B         -4.50613       -0.79744       -0.13809
B         -0.29632        1.84678        0.96109
B         -1.70843        2.53956        0.35788
B         -3.10621        1.72860        0.23390
B         -4.48609        0.83279       -0.21307
B         -4.44220        2.48703       -0.61318
B         -3.05434        3.29009       -0.31963
B         -1.66746        4.17550       -0.33172
B         -0.30432        3.42719        0.42219
B         -0.25797        4.77144       -0.44628
B          2.51917        3.38076        0.01011
B          1.17053        4.19608       -0.15631
B          2.55935        1.73080        0.47333
B          3.92128        2.52146       -0.12182
B          3.97852        0.92143        0.29625
B          1.19028        2.62470        0.62525
B          1.20037       -2.69828        0.78026
B         -3.22921        0.00122        0.57346
B          1.14606        0.89051        0.84439
B         -4.44533       -2.43759       -0.63038
B          5.24539       -1.61882       -0.65357
B          5.22870        0.06450       -0.39229
B          5.19522        1.74603       -0.67988
B          6.30007        0.80524       -1.32694
B          6.35541       -0.68796       -1.27987
B         -1.71191        0.86919        0.90065
B          1.09851       -1.74795       -0.49516
B         -0.26820       -1.72728        0.81923
B         -5.59118       -1.54230       -1.04356
B         -5.80765        0.02302       -1.01801
B         -5.62284        1.58231       -1.01818
B         -0.24718        0.07172        1.32945
