45
isomer_3686.log	Energy: -113470.3032596
B         -2.50824       -1.71668       -0.43176
B         -2.38942       -3.28279        0.39674
B         -0.99854       -4.03734        0.36704
B          0.33841       -3.08598       -0.26371
B         -1.13805       -0.87967       -0.94054
B          1.65188       -0.68549       -0.38488
B          1.79936       -4.03625        0.06168
B         -3.93143       -0.99779       -0.21124
B          1.78308       -2.43637       -0.81721
B         -3.72708       -2.51807        0.40891
B          0.42408       -4.59237        0.35651
B          3.15325       -3.22902       -0.12096
B          3.16310       -1.58701       -0.35011
B          4.58104       -0.67546       -0.14782
B          0.25404        1.82283       -1.10850
B          1.57881        2.59905       -0.31378
B          3.02295        1.85600       -0.14642
B          4.38714        0.93247        0.33176
B          4.21108        2.55325        0.90429
B          2.85398        3.37575        0.46025
B          1.43314        4.15182        0.42345
B          0.12054        3.40087       -0.48113
B         -0.01674        4.63989        0.51924
B         -2.70476        3.23347       -0.06338
B         -1.39233        4.03222        0.13549
B         -2.63264        1.52265       -0.65674
B         -3.97963        2.33674        0.05281
B         -4.00188        0.74399       -0.31891
B         -1.31982        2.49588       -0.71690
B         -1.05944       -2.25696        0.23948
B          3.19277        0.15741       -0.60875
B         -1.24303        0.84176       -1.03392
B          4.46674       -2.41631        0.33252
B         -5.15493       -1.74303        0.73111
B         -5.28198       -0.15884        0.17841
B         -5.31107        1.51266        0.48740
B         -6.36595        0.62385        1.15822
B         -6.28081       -0.85935        1.28771
B          1.71955        0.98731       -0.94679
B          0.23086       -1.24710        0.28258
B          0.40715       -1.70889       -1.40772
B          5.43838       -1.44017        0.96210
B          5.60752        0.10350        1.15602
B          5.36109        1.64148        1.34557
B          0.25782        0.02609       -1.10812
