45
isomer_3687.log	Energy: -113675.8861617
B         -2.50964       -1.75903       -0.48818
B         -2.42872       -3.33434        0.03966
B         -1.04903       -4.15696        0.12262
B          0.34989       -3.38484       -0.51446
B         -2.60996       -0.01548       -0.74603
B          1.78549       -0.83074       -0.91049
B          1.74647       -4.14418        0.24731
B         -3.95675       -0.90948       -0.21569
B          1.80107       -2.53277       -0.48786
B         -3.81077       -2.53649        0.29229
B          0.33992       -4.74549        0.35273
B          3.09045       -3.28091        0.26724
B          3.17266       -1.68093       -0.25932
B          4.53229       -0.79905        0.23660
B          0.31348        1.83073       -1.08819
B          1.72556        2.55064       -0.43154
B          3.12978        1.73255       -0.22151
B          4.54710        0.89271        0.14538
B          4.32774        2.49864        0.76973
B          3.00986        3.33950        0.27803
B          1.64365        4.16927        0.25827
B          0.27015        3.40249       -0.53780
B          0.22169        4.74780        0.35371
B         -2.51222        3.30405        0.03779
B         -1.15503        4.14906        0.11007
B         -2.56223        1.73105       -0.52957
B         -3.86853        2.48590        0.27680
B         -3.98389        0.84658       -0.22444
B         -1.18481        2.57766       -0.78843
B         -1.12025       -2.58977       -0.76577
B          3.29378        0.01542       -0.60952
B         -1.16972        0.85043       -1.06813
B          4.40572       -2.44506        0.75017
B         -5.06177       -1.73751        0.86386
B         -5.19595       -0.04304        0.52235
B         -5.10404        1.65300        0.84556
B         -6.10512        0.70819        1.60510
B         -6.08536       -0.81251        1.61193
B          1.71848        0.84304       -0.78947
B         -1.12994       -0.84894       -1.04267
B          0.36855       -1.82553       -1.11748
B          5.47225       -1.51952        1.30193
B          5.62026        0.03231        1.30428
B          5.37465        1.56866        1.33722
B          0.34278        0.00287       -1.09408
