45
isomer_3688.log	Energy: -113458.7470226
B         -2.54867       -1.66197       -0.63442
B         -2.53723       -3.38296       -0.05443
B         -1.18865       -4.14727        0.01937
B          0.27487       -3.43716       -0.65586
B         -1.20198       -0.93738       -1.06820
B          1.74960       -0.92409       -0.98510
B          1.64827       -4.15888        0.19838
B         -3.90550       -0.91329       -0.15264
B          1.71002       -2.56989       -0.47634
B         -3.79772       -2.51456        0.20233
B          0.22455       -4.70739        0.31460
B          3.01627       -3.32257        0.26799
B          3.08787       -1.74641       -0.22333
B          4.35972       -0.78746        0.39902
B          0.28797        1.73387       -1.45927
B          1.40809        2.41369       -0.04816
B          2.99969        1.71925       -0.10908
B          4.46119        0.86832        0.11005
B          4.20709        2.50329        0.76435
B          2.87245        3.28709        0.30151
B          1.55485        4.14149        0.00504
B          0.23142        3.33040       -0.94223
B          0.18044        4.71769       -0.08090
B         -2.52413        3.31388        0.04816
B         -1.22633        4.12573       -0.19000
B         -2.56823        1.60789       -0.43766
B         -3.80514        2.45311        0.31130
B         -3.89421        0.85349       -0.10387
B         -1.08677        2.40794       -0.25750
B         -1.20062       -2.57748       -0.74475
B          3.14957        0.00075       -0.49926
B         -1.21663        0.73994       -0.83096
B          4.33495       -2.46465        0.76485
B         -5.09191       -1.69066        0.77296
B         -5.15223       -0.03653        0.44963
B         -5.11898        1.60892        0.86876
B         -6.13225        0.69910        1.55565
B         -6.12570       -0.79762        1.52211
B          1.57837        0.75276       -0.51545
B          0.09938        1.25374        0.23361
B          0.32637       -1.81887       -1.21131
B          5.42841       -1.53603        1.27912
B          5.57264        0.04126        1.27279
B          5.31178        1.56372        1.26567
B          0.24705       -0.00418       -1.24655
