45
isomer_0369.log	Energy: -111105.7884703
B         -2.64304        1.72289        0.38839
B         -2.62787        3.36161        0.01161
B         -1.21790        4.18536       -0.23382
B          0.23650        3.34492        0.31023
B         -1.18704        0.82331        0.68788
B          1.68804        0.83876        0.76454
B          1.62847        4.12508       -0.38123
B         -4.10613        0.85600        0.31749
B          1.61489        2.44460        0.20743
B         -4.03973        2.54861       -0.13603
B          0.20643        4.79584       -0.51496
B          3.05620        3.27120       -0.40173
B          3.07657        1.64850        0.16134
B          4.53081        0.82968       -0.34146
B          0.24164       -1.71064        0.83019
B          1.61891       -2.41112        0.19836
B          3.07926       -1.61244        0.15525
B          4.53215       -0.78935       -0.34448
B          4.36510       -2.34668       -0.59210
B          3.06158       -3.23307       -0.41388
B          1.63526       -4.08937       -0.39657
B          0.24201       -3.31410        0.29779
B          0.21434       -4.76198       -0.53281
B         -2.62233       -3.33442       -0.00089
B         -1.21100       -4.15491       -0.24939
B         -2.64021       -1.69714        0.38200
B         -4.03554       -2.52321       -0.14550
B         -4.10473       -0.83241        0.31433
B         -1.20891       -2.52054        0.53869
B         -1.21310        2.54806        0.54816
B          3.16239        0.11736        0.55486
B         -1.18570       -0.79628        0.68486
B          4.36118        2.38765       -0.58325
B         -5.36488        1.74370       -0.63748
B         -5.35994        0.11210       -0.40662
B         -5.36202       -1.71863       -0.64395
B         -6.52998       -0.76367       -1.24077
B         -6.53127        0.78905       -1.23788
B          1.68940       -0.80726        0.76147
B         -0.10951       -1.62927        1.38648
B          0.23879        1.73948        0.83663
B          5.86970        1.67826       -0.80343
B          6.06597       -0.03469       -0.87223
B          5.86961       -1.76482       -0.88045
B          1.01564        0.93399        1.65293
