45
isomer_3690.log	Energy: -113335.4564201
B          2.91082       -1.72456        0.71394
B          2.86220       -3.31389        0.27249
B          1.50196       -4.00987       -0.06169
B         -0.03282       -3.27782        0.36102
B          2.03395       -0.41282        0.73294
B         -1.69562       -0.91034        0.96428
B         -1.33017       -4.11966       -0.45268
B          4.01386       -0.68922        0.37226
B         -1.58951       -2.57876        0.33116
B          4.20176       -2.39609        0.02120
B          0.13091       -4.58988       -0.51119
B         -2.79409       -3.37638       -0.43075
B         -2.98444       -1.81651        0.16867
B         -4.38575       -1.01639       -0.28894
B         -0.42326        1.70991        0.76725
B         -1.91401        2.49070        0.40335
B         -3.26497        1.59374        0.32346
B         -4.59891        0.63903       -0.10225
B         -4.60873        2.29168       -0.55189
B         -3.28468        3.19782       -0.20233
B         -1.94232        4.12766       -0.18602
B         -0.50258        3.39267        0.46200
B         -0.52537        4.75107       -0.35003
B          2.32599        3.49399       -0.04657
B          0.94351        4.23512       -0.10651
B          2.42948        1.77858        0.42527
B          3.64688        2.66168       -0.30859
B          3.85643        1.03809        0.27251
B          0.99479        2.60242        0.56041
B          1.38969       -2.36776        0.68024
B         -3.20806       -0.15440        0.55115
B          1.13961        0.92504        0.75233
B         -4.27687       -2.66538       -0.71549
B          5.30739       -1.44892       -0.67529
B          5.03877        0.22500       -0.51649
B          4.93700        1.87771       -0.84415
B          6.07398        1.03557       -1.47105
B          6.22489       -0.47081       -1.40533
B         -1.79560        0.79764        0.87447
B          0.69368       -0.86407        0.07345
B         -0.22570       -1.83643        1.17405
B         -5.49738       -1.83826       -1.07190
B         -5.78570       -0.26947       -1.03333
B         -5.68857        1.29174       -1.03294
B         -0.30243       -0.00914        1.10752
