45
isomer_3691.log	Energy: -113406.1005149
B          2.50051        1.78731       -0.57157
B          2.41974        3.43328        0.01209
B          1.02560        4.14640        0.17138
B         -0.41646        3.44537       -0.54808
B          1.15427        0.97545       -1.02998
B         -1.83165        0.91878       -0.88484
B         -1.82244        4.10545        0.33479
B          3.88620        1.02842       -0.13147
B         -1.84399        2.55971       -0.36114
B          3.79224        2.63406        0.18051
B         -0.39333        4.64272        0.51451
B         -3.19097        3.27787        0.32917
B         -3.22082        1.70238       -0.20931
B         -4.53201        0.73340        0.28135
B         -0.26931       -1.57906       -0.98064
B         -1.60265       -2.52795       -0.46075
B         -3.10066       -1.73002       -0.24309
B         -4.60684       -0.90045       -0.05081
B         -4.29417       -2.54725        0.61057
B         -2.93709       -3.31012        0.22554
B         -1.47531       -4.02193        0.24921
B         -0.17884       -3.31426       -0.76462
B          0.00945       -4.31140        0.60798
B          2.60602       -3.10233        0.20990
B          1.46616       -3.88450        0.93121
B          2.60510       -1.40720       -0.42938
B          3.95177       -2.22647        0.27007
B          3.94432       -0.64603       -0.10280
B          1.32250       -2.36394       -0.82840
B          1.11207        2.65433       -0.66058
B         -3.29559       -0.01135       -0.61134
B          1.25355       -0.68734       -0.99358
B         -4.52493        2.39934        0.74574
B          5.15712        1.90709        0.62611
B          5.30306        0.24426        0.27323
B          5.27438       -1.42418        0.70960
B          6.34096       -0.47341        1.31066
B          6.27545        1.02501        1.29357
B         -1.70836       -0.78465       -0.69348
B          1.30205       -4.01041       -0.62623
B         -0.40640        1.83598       -1.11758
B         -5.60972        1.45946        1.19405
B         -5.72251       -0.12893        1.13910
B         -5.40848       -1.63573        1.12660
B         -0.31001        0.11284       -1.04724
