45
isomer_3693.log	Energy: -110797.5593821
B          2.57732        1.78820       -0.44926
B          2.55360        3.42249       -0.05414
B          1.13927        4.23659        0.19826
B         -0.31019        3.39527       -0.35751
B          1.12617        0.88499       -0.76116
B         -1.74882        0.88737       -0.84224
B         -1.70700        4.16087        0.34043
B          4.04450        0.92766       -0.38575
B         -1.68434        2.48719       -0.26703
B          3.96917        2.61473        0.08663
B         -0.28845        4.83697        0.48396
B         -3.13060        3.29991        0.34906
B         -3.14220        1.68355       -0.23222
B         -4.59322        0.85211        0.25903
B         -0.28994       -1.65409       -0.93419
B         -1.66476       -2.36829       -0.31246
B         -3.12905       -1.57723       -0.26273
B         -4.58669       -0.76685        0.24388
B         -4.41245       -2.32603        0.47427
B         -3.10437       -3.20404        0.28820
B         -1.67388       -4.05317        0.26357
B         -0.28334       -3.26341       -0.41982
B         -0.24991       -4.72038        0.39453
B          2.58060       -3.27321       -0.11679
B          1.17290       -4.10327        0.12022
B          2.59111       -1.63167       -0.48126
B          3.98962       -2.45684        0.03918
B          4.05130       -0.76067       -0.40154
B          1.16407       -2.46018       -0.64947
B          1.14364        2.60817       -0.60205
B         -3.21997        0.15653       -0.64303
B          1.13271       -0.73452       -0.77632
B         -4.43154        2.40806        0.51857
B          5.29744        1.81067        0.58114
B          5.30078        0.18176        0.33197
B          5.31140       -1.65149        0.54874
B          6.47379       -0.69765        1.15812
B          6.46753        0.85500        1.17265
B         -1.74218       -0.75857       -0.85764
B          0.90381       -1.82770        1.61693
B         -0.30385        1.79586       -0.90190
B         -5.93693        1.68895        0.72835
B         -6.12498       -0.02560        0.77761
B         -5.92022       -1.75474        0.76672
B          0.68813       -0.91330       -1.03347
