45
isomer_3695.log	Energy: -112571.4374669
B         -2.58331        1.77342        0.41121
B         -2.55583        3.41699        0.05692
B         -1.13926        4.23604       -0.16509
B          0.30569        3.38012        0.37999
B         -1.13495        0.86167        0.71099
B          1.73939        0.85991        0.81266
B          1.70790        4.16174       -0.28874
B         -4.05048        0.91581        0.31589
B          1.67994        2.47353        0.27685
B         -3.97082        2.61402       -0.11395
B          0.29080        4.84225       -0.42560
B          3.13104        3.30021       -0.30854
B          3.13756        1.66992        0.23254
B          4.59159        0.84983       -0.26879
B          0.27845       -1.68197        0.83111
B          1.65728       -2.38156        0.20172
B          3.12234       -1.59060        0.18209
B          4.58403       -0.76900       -0.29384
B          4.41056       -2.32186       -0.56406
B          3.10068       -3.20323       -0.40918
B          1.66957       -4.05165       -0.41584
B          0.27462       -3.27804        0.27696
B          0.24620       -4.71434       -0.57348
B         -2.58708       -3.27819       -0.04668
B         -1.17819       -4.10316       -0.29414
B         -2.59928       -1.64618        0.35829
B         -3.99449       -2.45715       -0.19243
B         -4.05836       -0.77238        0.28977
B         -1.17395       -2.47966        0.51611
B         -1.15029        2.58828        0.59453
B          3.21151        0.13312        0.60591
B         -1.14251       -0.75770        0.68593
B          4.43266        2.41186       -0.49081
B         -5.29596        1.82346       -0.63773
B         -5.30202        0.18888       -0.42906
B         -5.31212       -1.63842       -0.69130
B         -6.46957       -0.66890       -1.28513
B         -6.46232        0.88362       -1.26111
B          1.73171       -0.78591        0.78719
B         -1.27688       -1.88798        2.16153
B          0.29455        1.76770        0.88450
B          5.93910        1.69705       -0.70759
B          6.12653       -0.01589       -0.79801
B          5.92071       -1.74462       -0.83147
B         -0.14673       -0.62106       -0.08012
