45
isomer_3696.log	Energy: -111367.6889410
B          2.55257        1.81935       -0.44022
B          2.51355        3.45637       -0.05779
B          1.09165        4.25916        0.18823
B         -0.34983        3.40006       -0.36105
B          1.10995        0.90024       -0.74516
B         -1.76493        0.87515       -0.82636
B         -1.75380        4.15797        0.33088
B          4.02771        0.97306       -0.36998
B         -1.71545        2.47991       -0.26358
B          3.93658        2.66297        0.08929
B         -0.34164        4.84838        0.46921
B         -3.16930        3.28385        0.34614
B         -3.16575        1.66299       -0.22258
B         -4.60900        0.82187        0.27505
B         -0.28238       -1.65322       -0.89853
B         -1.65054       -2.37538       -0.27133
B         -3.12216       -1.59766       -0.22779
B         -4.58735       -0.79702        0.27246
B         -4.39859       -2.35267        0.51495
B         -3.08235       -3.21984        0.33575
B         -1.64399       -4.05575        0.31776
B         -0.26081       -3.25837       -0.37169
B         -0.21387       -4.70860        0.45394
B          2.60306       -3.23908       -0.06849
B          1.20314       -4.08038        0.17491
B          2.59829       -1.60038       -0.44568
B          4.00438       -2.40840        0.08119
B          4.05028       -0.71520       -0.37268
B          1.17906       -2.44346       -0.60751
B          1.11131        2.62469       -0.59942
B         -3.22921        0.13217       -0.62153
B          1.13160       -0.71920       -0.74774
B         -4.46188        2.38123        0.52251
B          5.27225        1.87521        0.59007
B          5.29082        0.24452        0.35355
B          5.31853       -1.58681        0.58454
B          6.47190       -0.61746        1.18654
B          6.45114        0.93512        1.18902
B         -1.74293       -0.77072       -0.82899
B          2.08863       -2.28064        0.33485
B         -0.32850        1.79659       -0.89301
B         -5.96052        1.64975        0.73781
B         -6.13256       -0.06605        0.80037
B         -5.91166       -1.79323        0.80291
B         -0.12739       -0.90110       -0.71081
