45
isomer_0370.log	Energy: -112642.1184066
B         -2.57166        1.76754        0.39331
B         -2.54070        3.40928        0.03994
B         -1.12287        4.22845       -0.17866
B          0.31471        3.37611        0.36626
B         -1.12945        0.86820        0.68875
B          1.74346        0.84883        0.80169
B          1.71661        4.15421       -0.29828
B         -4.03238        0.90764        0.29920
B          1.68973        2.46923        0.26494
B         -3.94861        2.59899       -0.13033
B          0.30167        4.82641       -0.43488
B          3.13591        3.29175       -0.31619
B          3.14257        1.66257        0.22365
B          4.59681        0.83630       -0.27199
B          0.28504       -1.69981        0.81845
B          1.66619       -2.39907        0.19329
B          3.12495       -1.60861        0.17587
B          4.58514       -0.78652       -0.29547
B          4.41890       -2.34256       -0.56948
B          3.09734       -3.22020       -0.41270
B          1.66583       -4.06635       -0.42147
B          0.27247       -3.29450        0.26573
B          0.24115       -4.71744       -0.57749
B         -2.59211       -3.28845       -0.06190
B         -1.18084       -4.11364       -0.30379
B         -2.60456       -1.65312        0.34441
B         -3.98809       -2.46024       -0.20743
B         -4.04601       -0.78354        0.27430
B         -1.18342       -2.49329        0.50306
B         -1.14276        2.58631        0.57806
B          3.21471        0.11666        0.59766
B         -1.16342       -0.76446        0.66526
B          4.44791        2.40588       -0.49980
B         -5.27085        1.81008       -0.65322
B         -5.27949        0.17619       -0.44292
B         -5.29531       -1.63581       -0.70267
B         -6.43749       -0.67224       -1.29497
B         -6.43323        0.87429       -1.27434
B          1.73543       -0.80115        0.77831
B         -1.35723       -1.57451        2.42652
B          0.29938        1.76397        0.86804
B          5.93247        1.66900       -0.70671
B          6.11275       -0.02791       -0.79217
B          5.90890       -1.73996       -0.82504
B         -0.32955       -0.50452        0.10520
