45
isomer_3700.log	Energy: -113421.3021502
B         -2.30655       -1.46251        0.05158
B         -2.47091       -3.30727        0.13223
B         -1.16193       -4.12650        0.03290
B          0.28539       -3.30362       -0.46879
B         -1.25901       -0.88993       -1.41647
B          1.78853       -0.74102       -0.78245
B          1.65872       -4.10204        0.12873
B         -3.80680       -0.86515        0.21425
B          1.77490       -2.45884       -0.49559
B         -3.73927       -2.46392        0.40901
B          0.26543       -4.73747        0.20285
B          3.08090       -3.26201        0.13065
B          3.19862       -1.67234       -0.32051
B          4.62609       -0.78503       -0.06644
B          0.27307        1.75612       -1.09092
B          1.70814        2.53885       -0.46401
B          3.10988        1.75230       -0.19189
B          4.47951        0.85203        0.31354
B          4.33879        2.50841        0.79409
B          2.96647        3.28454        0.36394
B          1.54361        4.11934        0.32425
B          0.21370        3.28455       -0.38430
B          0.14272        4.69752        0.36550
B         -2.60577        3.30931       -0.22040
B         -1.24368        4.08916        0.02294
B         -2.56770        1.64916       -0.46224
B         -3.94905        2.47043        0.04634
B         -3.87978        0.86252        0.00378
B         -1.22334        2.51176       -0.82948
B         -1.24714       -2.49840       -0.75439
B          3.31292        0.08002       -0.66891
B         -1.28178        0.67981       -0.95071
B          4.42486       -2.41240        0.57817
B         -5.15700       -1.66834        0.80204
B         -5.15461       -0.02223        0.47398
B         -5.32386        1.64942        0.52253
B         -6.47016        0.73358        1.04753
B         -6.39822       -0.77014        1.18360
B          1.77974        0.88186       -0.97856
B         -0.84502       -0.79681        0.26250
B          0.27468       -1.68372       -0.95080
B          5.39676       -1.43666        1.19825
B          5.68282        0.08923        1.23555
B          5.50091        1.62472        1.26641
B          0.26443        0.04173       -0.61029
