45
isomer_3701.log	Energy: -113458.7472554
B          2.54953        1.66089       -0.63497
B          2.53863        3.38178       -0.05449
B          1.19036        4.14642        0.02045
B         -0.27358        3.43689       -0.65390
B          1.20225        0.93688       -1.06850
B         -1.74977        0.92461       -0.98554
B         -1.64650        4.15883        0.20024
B          3.90646        0.91203       -0.15453
B         -1.70926        2.57015       -0.47566
B          3.79922        2.51324        0.20080
B         -0.22259        4.70690        0.31658
B         -3.01498        3.32307        0.26944
B         -3.08762        1.74741       -0.22314
B         -4.36006        0.78861        0.39824
B         -0.28813       -1.73420       -1.45931
B         -1.40948       -2.41364       -0.05016
B         -3.00067       -1.71792       -0.11047
B         -4.46217       -0.86710        0.10853
B         -4.20857       -2.50179        0.76280
B         -2.87420       -3.28625        0.30001
B         -1.55689       -4.14103        0.00564
B         -0.23190       -3.33055       -0.94125
B         -0.18206       -4.71720       -0.07881
B          2.52303       -3.31432        0.05058
B          1.22507       -4.12622       -0.18751
B          2.56721       -1.60915       -0.43628
B          3.80401       -2.45367        0.31347
B          3.89314       -0.85415       -0.10235
B          1.08531       -2.40827       -0.25424
B          1.20157        2.57687       -0.74466
B         -3.15032        0.00046       -0.50051
B          1.21657       -0.74082       -0.83238
B         -4.33401        2.46567        0.76565
B          5.09410        1.68964        0.76974
B          5.15327        0.03520        0.44765
B          5.11808       -1.60946        0.86982
B          6.13258       -0.69959        1.55482
B          6.12819        0.79704        1.51851
B         -1.57913       -0.75236       -0.51651
B         -0.10016       -1.25312        0.23338
B         -0.32604        1.81896       -1.21063
B         -5.42780        1.53720        1.27945
B         -5.57301       -0.03962        1.27203
B         -5.31281       -1.56218        1.26420
B         -0.24688        0.00387       -1.24621
