45
isomer_3703.log	Energy: -113435.5085046
B         -2.89568        0.97600        0.46482
B         -2.90956        2.72314       -0.42409
B         -1.65204        3.51663       -0.67725
B         -0.17333        3.10472        0.13970
B         -1.37695        0.37333        0.66658
B          1.56285        0.81226        0.57480
B          1.16476        3.98210       -0.64285
B         -4.44362        0.81359        0.81347
B          1.37387        2.41243        0.03053
B         -4.21822        2.09069       -0.10980
B         -0.29134        4.24331       -0.96696
B          2.67252        3.38402       -0.39150
B          2.89831        1.87346        0.25953
B          4.51017        1.23559        0.31364
B          0.55871       -2.25156        1.24027
B          1.93788       -2.45594        0.24327
B          3.24551       -1.46616        0.25282
B          4.51620       -0.37250       -0.14652
B          4.70396       -1.99905       -0.58686
B          3.35704       -2.92640       -0.48850
B          1.99046       -3.73313       -0.89234
B          0.55207       -3.45781        0.11867
B          0.58729       -4.07455       -1.35152
B         -2.12511       -2.77002       -0.75494
B         -0.84228       -3.57524       -1.03340
B         -2.18010       -1.24817        0.46899
B         -3.46634       -2.08694       -0.50973
B         -3.81144       -0.75055        0.33068
B         -0.90247       -2.44938        0.22357
B         -1.50460        1.92843        0.03165
B          3.15112        0.22280        0.65631
B         -0.84118       -1.14182        1.31218
B          4.15983        2.79317       -0.43490
B         -5.72354        1.39324       -0.11665
B         -5.47771       -0.24228        0.18941
B         -4.96552       -1.66255       -0.62292
B         -6.26783       -0.96275       -1.05520
B         -6.67225        0.42090       -0.78643
B          1.78438       -0.85272        1.10600
B          0.60509       -1.13502        2.36270
B          0.01075        1.54174        0.71783
B          5.45029        2.02841       -0.70751
B          5.86007        0.55591       -0.66627
B          5.84927       -1.00439       -0.75342
B          0.23870        0.19305        1.60210
