45
isomer_3704.log	Energy: -113458.2332530
B         -2.64273       -1.54140       -0.56606
B         -2.62168       -3.24556        0.00970
B         -1.31925       -4.06205       -0.05419
B          0.19908       -3.32260       -0.78016
B         -1.22204       -0.75543       -0.92266
B          1.67706       -0.91812       -0.96967
B          1.46995       -4.09738        0.23329
B         -3.98211       -0.78173       -0.27516
B          1.34593       -2.34901        0.15298
B         -3.90157       -2.35629        0.18994
B          0.08010       -4.64425        0.18079
B          2.80463       -3.27237        0.45316
B          2.97345       -1.80026       -0.18616
B          4.32570       -0.87200        0.35748
B          0.32507        1.78625       -0.97504
B          1.80050        2.54614       -0.59807
B          3.15100        1.67752       -0.28556
B          4.54923        0.73894       -0.00239
B          4.44945        2.41937        0.54030
B          3.11601        3.28268        0.16574
B          1.76200        4.13351        0.21771
B          0.33036        3.36988       -0.40053
B          0.35051        4.71846        0.42512
B         -2.47186        3.41388        0.08908
B         -1.09326        4.15707        0.19875
B         -2.55616        1.72766       -0.66017
B         -3.74221        2.56318        0.26878
B         -3.93589        0.98735       -0.21595
B         -1.15030        2.51567       -0.44053
B         -1.19077       -2.38590       -0.38100
B          3.18270       -0.07890       -0.59091
B         -1.22471        0.93773       -1.04666
B          4.16828       -2.51241        0.85384
B         -5.22624       -1.53482        0.70047
B         -5.21812        0.12808        0.33031
B         -5.06154        1.73962        0.78612
B         -6.12045        0.83786        1.49554
B         -6.22243       -0.64643        1.41225
B          1.73960        0.85613       -0.85948
B          0.11061       -1.26056        0.17909
B          0.29212       -1.81252       -1.48154
B          5.36287       -1.63823        1.27157
B          5.61170       -0.10683        1.18192
B          5.47568        1.45318        1.08311
B          0.24971        0.00488       -1.08517
