45
isomer_3705.log	Energy: -113591.3636633
B          2.58565        1.43831       -0.07701
B          2.62427        3.11920        0.32507
B          1.29119        3.94904        0.39651
B         -0.19968        3.23545       -0.25899
B          1.16989        0.67764       -0.55245
B         -1.75561        0.76673       -0.82407
B         -1.56885        4.04715        0.38270
B          4.02644        0.68671       -0.35039
B         -1.69028        2.41954       -0.30341
B          4.04304        2.28037        0.25652
B         -0.14524        4.57516        0.58936
B         -3.01035        3.27628        0.22461
B         -3.15083        1.72322       -0.36724
B         -4.62706        0.89318       -0.18768
B         -0.39177       -1.89668       -1.23894
B         -1.84927       -2.54413       -0.53518
B         -3.22857       -1.69265       -0.43110
B         -4.61053       -0.78409       -0.03186
B         -4.53949       -2.37651        0.57981
B         -3.11178       -3.15117        0.33468
B         -1.67383       -3.85696        0.62429
B         -0.31923       -3.34909       -0.34215
B         -0.28254       -4.12415        1.11074
B          1.89735       -1.95478        0.70751
B          0.86901       -3.16906        0.88022
B          2.64269       -1.96579       -0.90273
B          3.48718       -1.74994        0.71339
B          4.01355       -1.04767       -0.77453
B          1.13043       -2.66265       -0.89918
B          1.29289        2.41641       -0.40539
B         -3.33833       -0.00186       -0.84416
B          1.06112       -0.97419       -0.65605
B         -4.43025        2.49328        0.48235
B          5.33709        1.43608        0.41189
B          5.41229       -0.25527       -0.26556
B          5.06088       -1.67603        0.64490
B          6.44868       -1.08001        0.77865
B          6.43570        0.37968        0.82157
B         -1.79627       -0.90243       -1.12004
B          2.55949       -0.32442        0.04840
B         -0.24175        1.65180       -0.78344
B         -5.57262        1.59793        0.90260
B         -5.83188        0.06938        0.87203
B         -5.69590       -1.48441        0.92733
B         -0.32696       -0.10860       -0.86359
