45
isomer_3706.log	Energy: -113458.5705324
B         -2.54609        1.66917        0.61000
B         -2.53001        3.38717        0.01644
B         -1.17366        4.14114       -0.07966
B          0.27950        3.42190        0.57912
B         -1.20895        0.93354        1.04990
B          1.75425        0.91508        0.99142
B          1.66434        4.14515       -0.23880
B         -3.91304        0.92746        0.15605
B          1.72438        2.55670        0.46929
B         -3.79680        2.53212       -0.21367
B          0.24367        4.70421       -0.36898
B          3.03052        3.30621       -0.27274
B          3.10061        1.73130        0.23352
B          4.39509        0.77667       -0.32794
B          0.29554       -1.76350        1.46268
B          1.38509       -2.39479       -0.05988
B          3.00028       -1.72889        0.11726
B          4.47818       -0.87770       -0.06984
B          4.21303       -2.49557       -0.76138
B          2.86498       -3.27340       -0.36102
B          1.53617       -4.11991       -0.10855
B          0.23233       -3.32648        0.87634
B          0.16017       -4.68729       -0.03649
B         -2.54875       -3.29581       -0.04685
B         -1.24646       -4.10985        0.13390
B         -2.59329       -1.59895        0.48937
B         -3.83265       -2.42543       -0.28011
B         -3.91816       -0.83686        0.15313
B         -1.11869       -2.40390        0.28662
B         -1.19494        2.57349        0.71290
B          3.17105       -0.01391        0.55187
B         -1.21552       -0.75719        0.88494
B          4.36411        2.45044       -0.72957
B         -5.09747        1.69910       -0.76650
B         -5.18147        0.05594       -0.39918
B         -5.16062       -1.59588       -0.80681
B         -6.17639       -0.69507       -1.49001
B         -6.14426        0.80021       -1.49255
B          1.61193       -0.80388        0.65015
B          0.24500        0.00897        1.18422
B          0.32785        1.81938        1.16804
B          5.46254        1.52493       -1.21903
B          5.60696       -0.05033       -1.21268
B          5.34633       -1.56652       -1.21850
B          0.10330       -1.25917       -0.21644
