45
isomer_3707.log	Energy: -113518.2551349
B         -2.29185        1.64949        0.47241
B         -2.51205        3.29401        0.45686
B         -1.22155        4.24169        0.51458
B          0.26774        3.56491        1.12379
B         -0.88902        0.76027        1.30637
B          1.30635        0.86308        0.70765
B          1.51296        4.28608        0.10109
B         -3.33172        0.83393       -0.54034
B          1.58859        2.61235        0.70090
B         -3.71690        2.38902       -0.17969
B          0.14222        4.90517        0.25393
B          2.80019        3.39278       -0.21349
B          2.83168        1.77679        0.06836
B          4.14686        0.90623       -0.51163
B          0.32140       -1.74517        1.43160
B          1.68692       -2.50580        0.64520
B          2.85924       -1.63480       -0.01582
B          4.10160       -0.73403       -0.70293
B          4.12707       -2.42934       -0.93759
B          2.97558       -3.26516       -0.10119
B          1.70564       -4.21078        0.34053
B          0.37844       -3.45254        1.12821
B          0.36874       -4.93178        0.52111
B         -2.20435       -3.35328        0.17547
B         -1.01667       -4.26356        0.61250
B         -1.81560       -1.66330       -0.00445
B         -3.35322       -2.54654       -0.52969
B         -3.32255       -0.91814       -0.51764
B         -1.16217       -2.57852        1.27032
B         -1.18051        2.62480        1.16890
B          2.87268        0.08870        0.21200
B         -1.93724        0.00407        0.15703
B          3.98901        2.56780       -0.96152
B         -4.80114        1.58978       -1.05131
B         -4.43959       -0.05963       -1.44212
B         -4.62022       -1.76958       -1.11660
B         -5.81929       -0.84929       -1.64405
B         -5.87076        0.64466       -1.71121
B          1.38474       -0.77791        0.56934
B         -1.17467       -0.88262        1.63562
B          0.33878        1.91976        1.51769
B          4.96558        1.62353       -1.67085
B          5.19855        0.08390       -1.72635
B          5.08540       -1.48732       -1.67061
B         -0.27490       -0.56371        0.15761
