45
isomer_3708.log	Energy: -112717.6480021
B          2.60378       -1.67359        0.40256
B          2.57910       -3.30764        0.00491
B          1.17461       -4.13821       -0.23909
B         -0.27470       -3.32194        0.32249
B          1.15764       -0.77723        0.71996
B         -1.72884       -0.82520        0.81424
B         -1.66449       -4.09555       -0.37422
B          4.04790       -0.80645        0.33150
B         -1.66119       -2.42796        0.23724
B          3.98427       -2.48188       -0.14346
B         -0.24601       -4.74409       -0.51881
B         -3.09000       -3.25018       -0.37833
B         -3.11465       -1.63634        0.20328
B         -4.57080       -0.80939       -0.28303
B         -0.28316        1.73151        0.89661
B         -1.66808        2.43389        0.27947
B         -3.12249        1.63174        0.23417
B         -4.57038        0.80905       -0.26620
B         -4.41667        2.37395       -0.50306
B         -3.10373        3.25621       -0.31572
B         -1.68818        4.11307       -0.29700
B         -0.29125        3.34075        0.37987
B         -0.27531        4.78014       -0.43062
B          2.55891        3.37292        0.06441
B          1.15270        4.18552       -0.16421
B          2.58976        1.73070        0.43302
B          3.96836        2.56053       -0.09599
B          4.04263        0.88153        0.34572
B          1.16595        2.55169        0.60448
B          1.18063       -2.51818        0.56431
B         -3.20263       -0.10022        0.61412
B          1.14583        0.83292        0.73878
B         -4.41068       -2.37377       -0.54998
B          5.29356       -1.67690       -0.64403
B          5.28601       -0.04525       -0.39399
B          5.28016        1.77035       -0.60998
B          6.43363        0.82907       -1.22386
B          6.44631       -0.70988       -1.24258
B         -1.73104        0.82386        0.82677
B          0.77346       -1.00910        1.78777
B         -0.28704       -1.72231        0.87457
B         -5.88899       -1.63817       -0.74887
B         -6.08177        0.05487       -0.79287
B         -5.89031        1.75461       -0.78017
B          0.39720        0.27058       -0.68415
