45
isomer_3710.log	Energy: -112297.1405103
B         -2.59288        1.75144        0.42947
B         -2.57180        3.39161        0.05935
B         -1.15851        4.21345       -0.17305
B          0.29040        3.36788        0.37766
B         -1.14080        0.84770        0.73542
B          1.73371        0.85698        0.83198
B          1.68868        4.14793       -0.30106
B         -4.05719        0.88783        0.34502
B          1.66765        2.46516        0.28079
B         -3.98425        2.58209       -0.10127
B          0.26896        4.82213       -0.44192
B          3.11480        3.29123       -0.31511
B          3.12800        1.66626        0.24162
B          4.58403        0.84649       -0.25439
B          0.28175       -1.68970        0.87748
B          1.66194       -2.39048        0.25239
B          3.12417       -1.59462        0.22254
B          4.58212       -0.77253       -0.26387
B          4.41365       -2.32851       -0.51884
B          3.10715       -3.21293       -0.35315
B          1.67902       -4.06638       -0.34911
B          0.28257       -3.29103        0.33871
B          0.25772       -4.73555       -0.49784
B         -2.57967       -3.30432        0.02018
B         -1.16832       -4.12670       -0.22184
B         -2.59690       -1.66854        0.40947
B         -3.99021       -2.48965       -0.13094
B         -4.05917       -0.80056        0.33514
B         -1.16837       -2.49547        0.57275
B         -1.16242        2.57305        0.60240
B          3.20801        0.13340        0.62960
B         -1.14270       -0.77186        0.72595
B          4.41922        2.40574       -0.49114
B         -5.30752        1.78189       -0.61506
B         -5.30746        0.14938       -0.39068
B         -5.31159       -1.68039       -0.63532
B         -6.47348       -0.72068       -1.23638
B         -6.47165        0.83202       -1.22730
B          1.73177       -0.78902        0.82235
B         -1.20747       -1.31119        1.59686
B          0.28581        1.76036        0.89766
B          5.92779        1.69416       -0.70372
B          6.12108       -0.01891       -0.77800
B          5.92129       -1.74858       -0.79447
B         -0.02890       -0.46056       -0.81034
