45
isomer_3712.log	Energy: -112278.5558748
B          2.53718        1.77977       -0.40898
B          2.50566        3.42266       -0.05185
B          1.08706        4.23797        0.17098
B         -0.35563        3.37958       -0.37621
B          1.09111        0.86513       -0.71095
B         -1.78318        0.85673       -0.81386
B         -1.75998        4.15672        0.29328
B          4.00634        0.92548       -0.31452
B         -1.72778        2.46956       -0.27523
B          3.92246        2.62275        0.11824
B         -0.34455        4.84034        0.43192
B         -3.18108        3.29178        0.31098
B         -3.18350        1.66243       -0.23293
B         -4.63580        0.83803        0.26635
B         -0.31621       -1.68164       -0.83609
B         -1.69365       -2.38559       -0.20850
B         -3.16059       -1.59813       -0.18812
B         -4.62442       -0.78082        0.28860
B         -4.44739       -2.33373        0.55620
B         -3.13536       -3.21173        0.40035
B         -1.70225       -4.05677        0.40616
B         -0.30884       -3.27866       -0.28471
B         -0.27738       -4.71636        0.56326
B          2.55272       -3.27259        0.04016
B          1.14568       -4.10133        0.28558
B          2.56122       -1.63986       -0.36198
B          3.95811       -2.44848        0.18793
B          4.01820       -0.76273       -0.29131
B          1.13793       -2.47644       -0.52185
B          1.10231        2.59156       -0.59150
B         -3.25366        0.12611       -0.60899
B          1.10249       -0.75427       -0.68870
B         -4.48067        2.40004        0.49115
B          5.24926        1.83442        0.64121
B          5.25927        0.20022        0.42971
B          5.27359       -1.62751        0.68879
B          6.42849       -0.65628        1.28479
B          6.41758        0.89626        1.26346
B         -1.77161       -0.78910       -0.79124
B          2.01762        0.03564       -0.56593
B         -0.34046        1.76807       -0.88350
B         -5.98551        1.68129        0.70604
B         -6.16891       -0.03224        0.79342
B         -5.95902       -1.76053        0.82396
B          1.22317       -2.51776       -1.43558
