45
isomer_3717.log	Energy: -112832.0578855
B         -2.68260        1.66569        0.38181
B         -2.64760        3.30910       -0.02307
B         -1.22762        4.13697       -0.25008
B          0.21444        3.36957        0.29081
B         -1.34478        0.79845        0.70665
B          1.74055        0.85102        0.77806
B          1.59704        4.13966       -0.38493
B         -4.05844        0.79897        0.30612
B          1.64921        2.49807        0.20039
B         -3.99691        2.45710       -0.16442
B          0.17014        4.71139       -0.51822
B          3.02449        3.31550       -0.39527
B          3.10026        1.70480        0.17034
B          4.57372        0.86428       -0.29230
B          0.39304       -1.80600        0.92771
B          1.77176       -2.47774        0.24103
B          3.16869       -1.64501        0.18869
B          4.59241       -0.77766       -0.28772
B          4.50319       -2.36674       -0.56367
B          3.13574       -3.27114       -0.35686
B          1.72406       -4.12852       -0.34901
B          0.32408       -3.38031        0.35381
B          0.30899       -4.72570       -0.44582
B         -2.57241       -3.36257        0.03951
B         -1.14137       -4.17855       -0.18060
B         -2.69452       -1.68389        0.40770
B         -3.98682       -2.51545       -0.12386
B         -4.05698       -0.88918        0.31620
B         -1.23070       -2.56900        0.56346
B         -1.28903        2.53483        0.53116
B          3.21954        0.11551        0.57827
B         -1.40175       -0.68926        0.71097
B          4.42995        2.45903       -0.59185
B         -5.26371        1.65982       -0.67197
B         -5.25318        0.01613       -0.42453
B         -5.24528       -1.73412       -0.63194
B         -6.34209       -0.81144       -1.23430
B         -6.38652        0.68221       -1.26788
B          1.78495       -0.81464        0.78373
B         -0.38734        0.97014        2.02993
B          0.23708        1.77198        0.83137
B          5.79731        1.62528       -0.74890
B          5.99914        0.02925       -0.77735
B          5.83906       -1.56731       -0.77369
B         -0.08916       -1.09049        0.12051
