45
isomer_3718.log	Energy: -113452.3922813
B          2.53474       -1.61240        0.55312
B          2.53534       -3.19249       -0.09131
B          1.19402       -3.95026       -0.27027
B         -0.15011       -3.38159        0.66930
B          1.19720       -0.77631        0.74370
B         -1.68361       -0.78674        0.95660
B         -1.60684       -4.13273       -0.21163
B          3.91991       -0.78193        0.20735
B         -1.60243       -2.46244        0.32771
B          3.88365       -2.32633       -0.24739
B         -0.21557       -4.57793       -0.46473
B         -2.92456       -3.29140       -0.26021
B         -3.03854       -1.70986        0.27398
B         -4.42500       -0.83815       -0.17729
B         -0.34096        1.86274        1.04712
B         -1.75179        2.54440        0.47201
B         -3.14397        1.73504        0.29131
B         -4.50481        0.80817       -0.15376
B         -4.38812        2.45127       -0.69529
B         -3.06306        3.29440       -0.29573
B         -1.71642        4.16709       -0.31194
B         -0.33039        3.42316        0.47595
B         -0.31978        4.73935       -0.43998
B          2.46382        3.39618       -0.00036
B          1.10238        4.17155       -0.15506
B          2.51685        1.69372        0.62253
B          3.76187        2.57098       -0.15876
B          3.90589        0.97865        0.24187
B          1.13842        2.57961        0.62093
B          1.35615       -2.70332        1.20968
B         -3.24490        0.01188        0.62201
B          1.17773        0.89110        1.02759
B         -4.29444       -2.45828       -0.69527
B          5.16632       -1.50860       -0.76304
B          5.11674        0.14176       -0.41653
B          5.10801        1.78634       -0.70044
B          6.15901        0.91668       -1.42525
B          6.18742       -0.57297       -1.45399
B         -1.74811        0.87555        0.96978
B          0.99973       -2.18504       -0.40515
B         -0.19718       -1.73997        0.92597
B         -5.39572       -1.58377       -1.22008
B         -5.62339       -0.03172       -1.22472
B         -5.46278        1.50662       -1.22644
B         -0.25272        0.05796        1.20613
