45
isomer_3719.log	Energy: -113310.1084023
B          2.54831       -1.50887        0.44747
B          2.73663       -3.15431       -0.37934
B          1.33509       -3.87514       -0.48255
B          0.04822       -3.14727        0.57678
B          1.25341       -0.51253        0.92314
B         -1.69194       -0.73234        0.70888
B         -1.43673       -4.10447       -0.11081
B          3.92007       -0.63793        0.14686
B         -1.49666       -2.42441        0.38766
B          3.96711       -2.16741       -0.37222
B         -0.06081       -4.53195       -0.36125
B         -2.78525       -3.31217       -0.23519
B         -2.99742       -1.72467        0.17774
B         -4.52733       -1.01135       -0.03626
B         -0.49823        1.80919        1.08783
B         -1.92751        2.50291        0.49425
B         -3.28364        1.65470        0.24765
B         -4.57864        0.65117       -0.20690
B         -4.57199        2.32954       -0.67155
B         -3.28555        3.21611       -0.22078
B         -1.92100        4.11543       -0.24191
B         -0.54362        3.46873        0.54467
B         -0.54090        4.76872       -0.35829
B          2.27417        3.53859        0.07666
B          0.89465        4.24012       -0.04176
B          2.34613        1.79894        0.53877
B          3.58731        2.76239       -0.12168
B          3.76371        1.15016        0.19257
B          0.96573        2.66982        0.77459
B          1.88954       -3.25877        1.06324
B         -3.28459       -0.06853        0.60525
B          0.95686        1.04479        1.03231
B         -4.18162       -2.57399       -0.72068
B          5.19821       -1.24330       -0.85018
B          5.00363        0.38964       -0.49870
B          4.95145        2.04646       -0.70037
B          6.05692        1.25763       -1.43029
B          6.15526       -0.21939       -1.52294
B         -1.79859        0.84876        0.90173
B          1.11325       -2.03369       -0.20300
B         -0.21166       -1.41825        0.92479
B         -5.27114       -1.70455       -1.29078
B         -5.65645       -0.19513       -1.25412
B         -5.60935        1.33648       -1.22425
B          1.19496       -2.03991        1.68299
