45
isomer_0372.log	Energy: -112923.7218495
B          2.58587       -1.67009        0.38185
B          2.58096       -3.30650       -0.00510
B          1.17568       -4.14109       -0.24061
B         -0.28006       -3.31689        0.32431
B          1.12537       -0.78525        0.70263
B         -1.74846       -0.82650        0.81001
B         -1.67253       -4.10495       -0.35711
B          4.04048       -0.78991        0.30076
B         -1.66729       -2.42812        0.24199
B          3.98399       -2.48019       -0.16272
B         -0.24621       -4.76232       -0.51033
B         -3.10781       -3.26357       -0.35690
B         -3.13628       -1.64465        0.21662
B         -4.60296       -0.83556       -0.26537
B         -0.32378        1.73508        0.87629
B         -1.71384        2.42734        0.26371
B         -3.16755        1.61611        0.23120
B         -4.61848        0.78339       -0.25813
B         -4.46773        2.34364       -0.49765
B         -3.17016        3.24035       -0.32781
B         -1.75127        4.10905       -0.32038
B         -0.34390        3.34177        0.35409
B         -0.33783        4.79499       -0.46758
B          2.51677        3.38918        0.02484
B          1.09573        4.19874       -0.20331
B          2.55308        1.74977        0.39715
B          3.93537        2.59136       -0.14004
B          4.02429        0.89841        0.30831
B          1.11641        2.55953        0.57439
B          1.16500       -2.50880        0.55172
B         -3.23124       -0.11681        0.62072
B          1.10985        0.83425        0.70988
B         -4.42234       -2.39043       -0.51882
B          5.29657       -1.66053       -0.67325
B          5.27986       -0.03051       -0.43202
B          5.26338        1.80162       -0.65777
B          6.43315        0.86072       -1.27311
B          6.44804       -0.69191       -1.28006
B         -1.76425        0.81944        0.81737
B          2.35380       -0.47564        1.61309
B         -0.29070       -1.71485        0.86086
B         -5.93928       -1.69300       -0.71832
B         -6.15125        0.01856       -0.77417
B         -5.97011        1.75036       -0.77353
B          0.04167       -0.22560        0.03233
