45
isomer_3721.log	Energy: -113518.1775584
B         -2.73685       -1.50970       -1.32363
B         -2.87362       -3.08662       -0.33453
B         -1.60781       -3.24163        0.62271
B         -0.00523       -3.15973       -0.22356
B         -1.15989       -0.73988       -1.16557
B          1.73126       -0.97644       -0.99900
B          1.19026       -3.74809        0.91963
B         -3.86200       -0.58568       -0.42033
B          1.49011       -2.44772       -0.15391
B         -4.15724       -2.22032       -0.34461
B         -0.28373       -3.80109        1.23254
B          2.71348       -3.24156        0.69322
B          3.04065       -1.90242       -0.18086
B          4.55588       -1.14185        0.02223
B          0.55772        1.58636       -0.74069
B          2.04749        2.26629       -0.39699
B          3.44144        1.42426       -0.44893
B          4.83172        0.43746       -0.40812
B          4.83635        2.11774        0.20932
B          3.50057        3.00885        0.01957
B          2.18613        3.94339        0.25869
B          0.70737        3.24976       -0.21370
B          0.85195        4.61200        0.56673
B         -2.05776        3.38699        0.44751
B         -0.64619        4.09485        0.46231
B         -2.26227        1.81521       -0.30797
B         -3.53137        2.73030        0.48626
B         -3.68668        1.11550        0.00922
B         -0.82170        2.55614       -0.31885
B         -1.33540       -2.39633       -0.93375
B          3.35331       -0.29297       -0.82487
B         -0.95920        0.87566       -0.83667
B          4.22463       -2.63759        0.82849
B         -5.43036       -1.30370        0.07819
B         -5.18951        0.38555        0.08546
B         -4.91423        1.98933        0.79403
B         -6.12632        1.06695        1.20449
B         -6.41271       -0.37514        0.80591
B          1.84996        0.62447       -0.79931
B         -2.41773       -1.58136        0.43133
B          0.28229       -1.69229       -1.12763
B          5.54176       -1.90394        1.01931
B          5.92856       -0.42518        0.76477
B          5.88308        1.11024        0.61169
B         -2.26820        0.01394       -0.07013
