45
isomer_3722.log	Energy: -111409.6488708
B         -2.50356        1.77079        0.38277
B         -2.46896        3.40989        0.00894
B         -1.04862        4.22192       -0.21478
B          0.39055        3.36823        0.34880
B         -1.05977        0.85833        0.70176
B          1.81393        0.84906        0.81989
B          1.79896        4.13749       -0.32123
B         -3.97282        0.91656        0.28936
B          1.76254        2.45630        0.26442
B         -3.88544        2.60923       -0.16038
B          0.38478        4.82061       -0.47436
B          3.21950        3.27146       -0.32254
B          3.21788        1.64779        0.23811
B          4.67219        0.81732       -0.24501
B          0.34502       -1.68797        0.86050
B          1.72524       -2.39926        0.24746
B          3.19283       -1.61304        0.22672
B          4.65975       -0.80166       -0.25066
B          4.48300       -2.35712       -0.50321
B          3.16953       -3.23259       -0.34526
B          1.73585       -4.07668       -0.34992
B          0.33939       -3.29057        0.32554
B          0.31135       -4.73690       -0.50775
B         -2.52040       -3.28592       -0.01445
B         -1.11270       -4.11808       -0.24392
B         -2.52984       -1.64913        0.37082
B         -3.92440       -2.46242       -0.17810
B         -3.98579       -0.77179        0.28346
B         -1.10802       -2.48498        0.54679
B         -1.06908        2.58345        0.56450
B          3.28494        0.11538        0.63031
B         -1.07221       -0.76121        0.69610
B          4.51937        2.37704       -0.48667
B         -5.21004        1.81645       -0.68221
B         -5.22235        0.18452       -0.45396
B         -5.23663       -1.64576       -0.69430
B         -6.38767       -0.67994       -1.30634
B         -6.37574        0.87273       -1.30092
B          1.80129       -0.79691        0.81414
B         -3.54506       -0.41405        1.47115
B          0.37153        1.76203        0.87256
B          6.02480        1.65511       -0.68623
B          6.20742       -0.05936       -0.75500
B          5.99643       -1.78773       -0.76888
B         -1.18899       -1.40864        0.30197
