45
isomer_3724.log	Energy: -113441.0346429
B          2.57676       -1.43486        0.86888
B          2.70258       -3.18863        0.05555
B          1.41649       -3.98639       -0.28192
B         -0.07555       -3.19296        0.10283
B          1.07202       -0.61941       -0.12223
B         -1.74341       -0.85761        1.01738
B         -1.41338       -4.07048       -0.44102
B          4.02102       -0.69504        0.43618
B         -1.62297       -2.52868        0.44091
B          3.90556       -2.26567        0.07660
B          0.01839       -4.61097       -0.58659
B         -2.83992       -3.28099       -0.40184
B         -3.04822       -1.78258        0.23524
B         -4.39902       -0.90821       -0.29174
B         -0.35253        1.72569        0.87357
B         -1.84959        2.44136        0.52997
B         -3.28505        1.65438        0.42998
B         -4.66915        0.68922        0.10719
B         -4.55462        2.32634       -0.50072
B         -3.21225        3.18217       -0.15967
B         -1.85566        4.06252       -0.25334
B         -0.41546        3.31599        0.40494
B         -0.49158        4.65039       -0.50434
B          2.34832        3.27479       -0.38372
B          0.94225        4.07886       -0.39295
B          2.50380        1.70547        0.28651
B          3.76058        2.51242       -0.46459
B          3.95778        1.02878        0.20396
B          1.07628        2.53559        0.35309
B          1.34337       -2.20989       -0.07072
B         -3.26923       -0.08598        0.65385
B          1.21140        0.77336        0.71025
B         -4.30644       -2.55032       -0.70556
B          5.26579       -1.47350       -0.39497
B          5.30620        0.18318       -0.12794
B          5.18320        1.75956       -0.76228
B          6.29927        0.84397       -1.28099
B          6.32841       -0.63236       -1.14129
B         -1.80551        0.77283        0.98177
B          1.23829       -0.88626        1.59173
B         -0.14528       -1.67130        0.83399
B         -5.53118       -1.73258       -1.07206
B         -5.78837       -0.17984       -1.04022
B         -5.59785        1.33959       -1.03527
B         -0.20553       -0.01197        1.22162
