45
isomer_3725.log	Energy: -113675.8859414
B          2.50998       -1.76014        0.48927
B          2.42794       -3.33457       -0.04020
B          1.04784       -4.15703       -0.12305
B         -0.35085       -3.38459        0.51433
B          1.13041       -0.84917        1.04250
B         -1.78599       -0.83033        0.91070
B         -1.74769       -4.14398       -0.24665
B          3.95646       -0.90997        0.21587
B         -1.80199       -2.53257        0.48868
B          3.81012       -2.53700       -0.29278
B         -0.34121       -4.74555       -0.35240
B         -3.09158       -3.28038       -0.26672
B         -3.17297       -1.68016        0.25896
B         -4.53310       -0.79831       -0.23596
B         -0.31288        1.83069        1.08780
B         -1.72482        2.55140        0.43080
B         -3.12888        1.73282        0.22110
B         -4.54676        0.89384       -0.14591
B         -4.32663        2.49906       -0.77080
B         -3.00866        3.33987       -0.27903
B         -1.64222        4.16934       -0.25878
B         -0.26915        3.40280        0.53886
B         -0.22025        4.74782       -0.35343
B          2.51332        3.30387       -0.03688
B          1.15627        4.14920       -0.10954
B          2.56299        1.73073        0.53006
B          3.86941        2.48506       -0.27594
B          3.98425        0.84560        0.22499
B          1.18554        2.57771        0.78858
B          1.11969       -2.58984        0.76494
B         -3.29348        0.01592        0.60901
B          1.17012        0.85050        1.06840
B         -4.40707       -2.44459       -0.74917
B          5.06095       -1.73838       -0.86460
B          5.19604       -0.04425       -0.52231
B          5.10425        1.65198       -0.84542
B          6.10428        0.70708       -1.60603
B          6.08403       -0.81361       -1.61335
B         -1.71777        0.84347        0.78899
B          2.61007       -0.01596        0.74635
B         -0.36888       -1.82503        1.11674
B         -5.47349       -1.51875       -1.30094
B         -5.62081        0.03319       -1.30360
B         -5.37417        1.56950       -1.33785
B         -0.34266        0.00273        1.09439
