45
isomer_3727.log	Energy: -113256.0943249
B          2.48834       -1.76426        0.74248
B          2.35287       -3.06578       -0.57156
B          1.00073       -3.72572       -0.95515
B         -0.30370       -2.96569       -0.04101
B          0.91999       -0.61907        0.76760
B         -1.56153       -0.68155        1.02032
B         -1.73990       -3.90943       -0.44951
B          3.90510       -0.92263        0.40427
B         -1.74435       -2.37109        0.60198
B          3.68949       -2.31672       -0.40672
B         -0.41935       -4.33120       -0.97368
B         -3.08633       -3.12883       -0.10706
B         -3.19354       -1.60934        0.53785
B         -4.49977       -0.68985        0.05105
B         -0.22008        1.81467        0.91191
B         -1.63699        2.56867        0.37240
B         -3.05284        1.78135        0.25447
B         -4.53903        0.94866        0.11490
B         -4.33808        2.53461       -0.61959
B         -2.95053        3.31233       -0.37264
B         -1.51530        4.10290       -0.53434
B         -0.18971        3.41941        0.25834
B         -0.09724        4.64138       -0.74658
B          2.63977        3.25089       -0.21684
B          1.31388        4.06212       -0.42534
B          2.62387        1.63895        0.50395
B          3.97239        2.38860       -0.11227
B          3.99129        0.82753        0.42471
B          1.25872        2.54978        0.42932
B          1.06808       -2.01089       -0.33481
B         -3.20698        0.11485        0.77173
B          1.12197        0.94615        0.85761
B         -4.50221       -2.35068       -0.36199
B          5.13300       -1.65360       -0.53390
B          5.31063       -0.08765        0.06873
B          5.34708        1.55958       -0.37130
B          6.43731        0.65417       -0.91368
B          6.33434       -0.81071       -1.02069
B         -1.65125        0.89085        0.83041
B          1.17642       -2.19800        1.47515
B         -0.34348       -1.83054        1.52119
B         -5.63765       -1.46225       -0.81934
B         -5.76284        0.07662       -0.89129
B         -5.48262        1.60569       -1.00876
B         -0.40995       -1.18426       -0.13233
