45
isomer_3728.log	Energy: -113478.6520641
B          2.52956        1.65258       -0.57322
B          2.49601        3.31311        0.04870
B          1.12338        4.09580        0.26752
B         -0.31259        3.38745       -0.36002
B          1.16174        0.90146       -1.02493
B         -1.77802        0.90040       -0.94018
B         -1.69294        4.14765        0.41440
B          3.94414        0.92115       -0.29240
B         -1.75442        2.55710       -0.43515
B          3.83873        2.50224        0.10173
B         -0.28569        4.69398        0.56813
B         -3.06534        3.29671        0.36058
B         -3.14979        1.75685       -0.22026
B         -4.49367        0.79670        0.22218
B         -0.18340       -1.58825       -0.38746
B         -1.66288       -2.47033       -0.36557
B         -3.11857       -1.69689       -0.39704
B         -4.58220       -0.83933       -0.16409
B         -4.39463       -2.46122        0.44063
B         -3.03027       -3.30562        0.05807
B         -1.65658       -4.12812        0.12149
B         -0.14283       -3.31278       -0.57693
B         -0.30569       -4.54676        0.53435
B          2.48034       -3.12714        0.42256
B          1.11726       -3.88635        0.47926
B          2.57028       -1.70166       -0.61351
B          3.83854       -2.30850        0.38680
B          3.94584       -0.82038       -0.25869
B          1.31586       -2.73309       -1.06353
B          1.17138        2.60384       -0.65178
B         -3.25685        0.05919       -0.66757
B          1.27541       -0.73671       -0.75156
B         -4.42036        2.45917        0.73297
B          5.22524        1.72287        0.50694
B          5.29009        0.07263        0.10244
B          5.22039       -1.52323        0.65635
B          6.31725       -0.60457        1.22493
B          6.31731        0.87094        1.14547
B         -1.67160       -0.74960       -0.70902
B          1.11635       -2.05830        0.55184
B         -0.34499        1.86418       -1.04674
B         -5.56081        1.52604        1.14176
B         -5.73091       -0.01978        1.05753
B         -5.45222       -1.53997        1.00034
B         -0.24780        0.05652       -1.04732
