45
isomer_3729.log	Energy: -113446.0297450
B         -2.50949        1.70404        0.58763
B         -2.48018        3.37966       -0.02640
B         -1.11577        4.15466       -0.21093
B          0.32584        3.44049        0.43392
B         -1.16318        0.92884        1.04184
B          1.70336        0.88904        0.85708
B          1.69835        4.16159       -0.39822
B         -3.89674        0.95604        0.25901
B          1.73088        2.56126        0.40212
B         -3.78884        2.54213       -0.14163
B          0.30194        4.73404       -0.51829
B          3.05854        3.28186       -0.37016
B          3.11439        1.73255        0.20369
B          4.48657        0.80255       -0.17258
B          0.16777       -1.70128        0.71377
B          1.60759       -2.48575        0.25673
B          3.02915       -1.71325        0.22347
B          4.52270       -0.85541        0.04362
B          4.43428       -2.44688       -0.47583
B          2.98773       -3.29236       -0.22151
B          1.61561       -4.13142       -0.26317
B          0.13578       -3.36778        0.53978
B          0.24841       -4.63297       -0.50644
B         -2.51972       -3.16657       -0.22352
B         -1.18726       -3.99416       -0.30828
B         -2.55252       -1.64350        0.57486
B         -3.88661       -2.31791       -0.25695
B         -3.95307       -0.81038        0.26419
B         -1.34611       -2.70170        1.18324
B         -1.14580        2.62472        0.63570
B          3.19533        0.02391        0.54891
B         -1.23570       -0.72635        0.75754
B          4.43283        2.44802       -0.68167
B         -5.14689        1.74835       -0.62140
B         -5.17789        0.10949       -0.28541
B         -5.22058       -1.52042       -0.64451
B         -6.26697       -0.58953       -1.30419
B         -6.22871        0.88977       -1.28810
B          1.62943       -0.76476        0.65348
B         -1.11537       -2.11806       -0.50948
B          0.33557        1.90178        1.04607
B          5.59560        1.50335       -1.05679
B          5.76301       -0.01997       -0.98670
B          5.55363       -1.57237       -0.95808
B          0.26315        0.05463        1.20358
