45
isomer_3730.log	Energy: -112648.9034011
B         -2.57177        1.73276        0.35653
B         -2.54564        3.36976       -0.01904
B         -1.13390        4.19529       -0.24151
B          0.30565        3.35869        0.31667
B         -1.13025        0.83861        0.66544
B          1.75070        0.84303        0.78210
B          1.70357        4.13511       -0.35654
B         -4.02349        0.86615        0.26422
B          1.68662        2.45765        0.22769
B         -3.94684        2.55170       -0.18476
B          0.28518        4.79638       -0.50221
B          3.12378        3.28333       -0.36575
B          3.14275        1.65917        0.19088
B          4.59872        0.83669       -0.30085
B          0.31067       -1.70250        0.83274
B          1.68945       -2.40970        0.20309
B          3.14237       -1.61287        0.17418
B          4.59559       -0.78735       -0.30891
B          4.43789       -2.34823       -0.56945
B          3.12089       -3.23088       -0.40013
B          1.69997       -4.08287       -0.39997
B          0.30108       -3.31758        0.28242
B          0.28065       -4.74422       -0.54987
B         -2.56291       -3.32996       -0.05396
B         -1.14701       -4.15110       -0.28601
B         -2.58121       -1.68180        0.34629
B         -3.95487       -2.50237       -0.20719
B         -4.02590       -0.82372        0.25465
B         -1.15691       -2.52961        0.50704
B         -1.14743        2.56471        0.53338
B          3.22446        0.11632        0.57971
B         -1.13437       -0.76870        0.67231
B          4.44388        2.40352       -0.54463
B         -5.25838        1.75246       -0.70363
B         -5.25752        0.12236       -0.47843
B         -5.26118       -1.68808       -0.72206
B         -6.40188       -0.74060       -1.33019
B         -6.40830        0.80531       -1.32491
B          1.75177       -0.80694        0.77446
B         -1.17069        0.84798        1.88086
B          0.29930        1.75140        0.84201
B          5.92580        1.66995       -0.74804
B          6.11314       -0.02495       -0.81754
B          5.91988       -1.73207       -0.83342
B         -1.03334       -1.94223        1.56231
