45
isomer_3731.log	Energy: -113372.1743046
B          2.58307       -1.60460        0.72020
B          2.59679       -3.23992        0.20257
B          1.25470       -4.10983       -0.08412
B         -0.20002       -3.34090        0.23882
B          1.15831       -0.79199        1.19470
B         -1.63314       -0.87057        0.57185
B         -1.55439       -4.15545       -0.46775
B          3.91755       -0.76980        0.24910
B         -1.68885       -2.56248        0.23525
B          3.91936       -2.38585        0.05818
B         -0.11520       -4.73583       -0.48627
B         -2.98404       -3.35771       -0.44525
B         -3.07133       -1.74667        0.07946
B         -4.49460       -0.90078       -0.13725
B         -0.21793        1.81324        1.09605
B         -1.74241        2.51225        0.50958
B         -3.14017        1.63152        0.44015
B         -4.52256        0.77641        0.08014
B         -4.46177        2.41416       -0.42726
B         -3.09899        3.26488       -0.01749
B         -1.73877        4.07285       -0.19289
B         -0.26437        3.43740        0.53345
B         -0.33872        4.64333       -0.50679
B          2.51373        3.34147       -0.31225
B          1.08838        4.14701       -0.32411
B          2.51146        1.69556        0.06329
B          3.85640        2.50374       -0.47284
B          3.90122        0.89848       -0.03412
B          1.16087        2.57922        0.35053
B          1.21267       -2.53171        0.74900
B         -3.20156       -0.08581        0.65304
B          1.14133        0.83825        0.34883
B         -4.34472       -2.53319       -0.80698
B          5.28965       -1.62246       -0.41320
B          5.25566        0.06776       -0.22423
B          5.23236        1.64422       -0.81911
B          6.33480        0.69281       -1.29007
B          6.36719       -0.80452       -1.09465
B         -1.55920        0.76464        0.74196
B          0.14539        0.38328        1.78389
B         -0.27083       -1.76313        0.87848
B         -5.44325       -1.56583       -1.23459
B         -5.67185       -0.03903       -1.07780
B         -5.49661        1.49879       -0.99846
B         -0.18563       -0.10321        0.08896
