45
isomer_3734.log	Energy: -113675.8834163
B         -2.50689        1.76039        0.48594
B         -2.42465        3.33618       -0.04025
B         -1.04415        4.15794       -0.12189
B          0.35407        3.38435        0.51511
B         -1.12820        0.84871        1.03876
B          1.78886        0.82990        0.91409
B          1.75160        4.14376       -0.24430
B         -3.95544        0.91297        0.21524
B          1.80437        2.53177        0.49026
B         -3.80724        2.53895       -0.29430
B          0.34567        4.74597       -0.35044
B          3.09495        3.27923       -0.26438
B          3.17489        1.67888        0.26133
B          4.53174        0.79471       -0.23977
B          0.31145       -1.83007        1.08672
B          1.72159       -2.55219        0.42844
B          3.12678       -1.73538        0.21814
B          4.54648       -0.89727       -0.14392
B          4.32353       -2.50183       -0.77197
B          3.00536       -3.34268       -0.28016
B          1.63809       -4.17086       -0.25854
B          0.26656       -3.40346        0.54148
B          0.21537       -4.74783       -0.35182
B         -2.51679       -3.30315       -0.03474
B         -1.16054       -4.14884       -0.10657
B         -2.56496       -1.72930        0.53271
B         -3.87151       -2.48317       -0.27477
B         -3.98479       -0.84317        0.22496
B         -1.18804       -2.57733        0.78961
B         -1.11703        2.59036        0.76389
B          3.29336       -0.01771        0.60916
B         -1.17129       -0.85114        1.06921
B          4.40905        2.44258       -0.74829
B         -5.05877        1.74157       -0.86591
B         -5.19485        0.04737       -0.52385
B         -5.10520       -1.64887       -0.84505
B         -6.10518       -0.70317       -1.60584
B         -6.08342        0.81739       -1.61374
B          1.71678       -0.84378        0.78398
B         -2.61008        0.01740        0.74700
B          0.37105        1.82455        1.11824
B          5.47570        1.51637       -1.29999
B          5.61936       -0.03578       -1.30531
B          5.36944       -1.57142       -1.34006
B          0.34291       -0.00296        1.09158
