45
isomer_3735.log	Energy: -113441.9582182
B         -2.45248        1.82343        0.46927
B         -2.37679        3.45188       -0.10846
B         -0.98284        4.21901       -0.27529
B          0.43850        3.42904        0.34158
B         -1.14918        0.95862        1.03533
B          1.77345        0.86237        0.72008
B          1.82973        4.13260       -0.42405
B         -3.72956        1.01679       -0.01485
B          1.84517        2.55185        0.45496
B         -3.79995        2.69005       -0.15787
B          0.45065        4.75421       -0.55891
B          3.19008        3.24759       -0.35681
B          3.21053        1.67893        0.15414
B          4.64448        0.73091        0.04999
B          0.27813       -1.65354        1.30350
B          1.55372       -2.48702        0.56558
B          3.02550       -1.74203        0.31547
B          4.41342       -0.90494       -0.21178
B          4.26875       -2.56173       -0.59430
B          2.83202       -3.27128       -0.16899
B          1.38372       -3.97963       -0.24387
B         -0.07369       -3.24247        0.39302
B          0.05348       -4.49978       -0.66347
B         -2.65930       -3.19498       -0.79795
B         -1.38193       -4.10520       -0.81278
B         -2.47372       -1.74322        0.39354
B         -3.73712       -2.13766       -0.65233
B         -3.68284       -0.64661       -0.00777
B         -1.81731       -3.42284        0.59012
B         -1.09076        2.68716        0.57441
B          3.25403       -0.02548        0.65173
B         -1.28550       -0.63352        1.02415
B          4.49767        2.36491       -0.69209
B         -5.12924        1.93316       -0.50936
B         -5.17567        0.23497       -0.08012
B         -5.16311       -1.31870       -0.68280
B         -6.36929       -0.47545       -0.99977
B         -6.24571        1.00627       -1.06206
B          1.68345       -0.78763        1.00518
B         -1.16895       -2.28550        1.41919
B          0.39794        1.88224        0.97123
B          5.52178        1.33076       -1.14249
B          5.69942       -0.20992       -1.09997
B          5.45111       -1.75283       -1.07858
B          0.24824        0.09520        0.96425
