45
isomer_3736.log	Energy: -112459.7893237
B          2.64152       -1.62031        0.34499
B          2.63422       -3.26996       -0.04827
B          1.22989       -4.10728       -0.27821
B         -0.23468       -3.30574        0.28948
B          1.23095       -0.70925        0.65846
B         -1.73969       -0.76428        0.77464
B         -1.61026       -4.08777       -0.40708
B          4.05175       -0.75497        0.27355
B         -1.66476       -2.41692        0.18946
B          3.99525       -2.43803       -0.19412
B         -0.17487       -4.70907       -0.54529
B         -3.06069       -3.25043       -0.41593
B         -3.11798       -1.62438        0.16507
B         -4.58000       -0.79844       -0.30658
B         -0.28241        1.75459        0.86624
B         -1.68537        2.46153        0.25271
B         -3.13807        1.65552        0.20963
B         -4.58844        0.82907       -0.28631
B         -4.44487        2.40058       -0.52693
B         -3.11726        3.27670       -0.33767
B         -1.70087        4.13251       -0.32164
B         -0.30039        3.36462        0.34722
B         -0.29238        4.78168       -0.45614
B          2.54970        3.39018        0.01302
B          1.12911        4.19694       -0.20344
B          2.59726        1.75630        0.38495
B          3.95253        2.58142       -0.15319
B          4.03749        0.92514        0.28706
B          1.17007        2.57211        0.56183
B          1.23594       -2.47617        0.51481
B         -3.21106       -0.06834        0.58412
B          1.17570        0.85045        0.69432
B         -4.42127       -2.37536       -0.58632
B          5.29296       -1.61190       -0.69522
B          5.27236        0.01220       -0.44810
B          5.25962        1.80111       -0.66727
B          6.39620        0.88939       -1.27694
B          6.42554       -0.64493       -1.29604
B         -1.74523        0.86136        0.79664
B          1.13356       -0.73583        2.48596
B         -0.26360       -1.71940        0.87013
B         -5.87535       -1.62069       -0.76311
B         -6.07195        0.06405       -0.80085
B         -5.89534        1.73086       -0.78734
B         -0.19483       -1.17884        0.23767
