45
isomer_3739.log	Energy: -111923.0631355
B         -2.62676       -1.48452       -0.45737
B         -2.66171       -3.12298       -0.08079
B         -1.27758       -3.98958        0.16417
B          0.20175       -3.19402       -0.38017
B         -1.14396       -0.62993       -0.75715
B          1.72928       -0.73346       -0.83457
B          1.56934       -4.01655        0.31083
B         -4.06258       -0.57321       -0.38598
B          1.60710       -2.33637       -0.27763
B         -4.04796       -2.26712        0.06732
B          0.12746       -4.64345        0.44486
B          3.02257       -3.20683        0.33105
B          3.09250       -1.58543       -0.23184
B          4.57128       -0.81163        0.27067
B          0.36165        1.85907       -0.89954
B          1.75990        2.51695       -0.26800
B          3.19511        1.67389       -0.22537
B          4.62223        0.80661        0.27388
B          4.50303        2.36829        0.52172
B          3.22725        3.29422        0.34396
B          1.82783        4.19383        0.32713
B          0.41129        3.46170       -0.36695
B          0.42821        4.90965        0.46383
B         -2.45100        3.56974       -0.06750
B         -1.01513        4.34657        0.18072
B         -2.51914        1.93382       -0.45058
B         -3.88836        2.80219        0.07739
B         -4.00945        1.11436       -0.38262
B         -1.06332        2.71300       -0.60756
B         -1.22282       -2.35309       -0.61762
B          3.22509       -0.05759       -0.62520
B         -1.09299        0.98886       -0.75393
B          4.35406       -2.36369        0.51233
B         -5.34769       -1.42205        0.56922
B         -5.29282        0.20866        0.33855
B         -5.23874        2.03856        0.57609
B         -6.43526        1.11977        1.17312
B         -6.48412       -0.43218        1.17004
B          1.78107        0.91175       -0.83130
B         -1.64191       -3.41541        1.16331
B          0.25309       -1.58934       -0.90638
B          5.88366       -1.70089        0.73218
B          6.13235        0.00524        0.80114
B          5.98909        1.74057        0.80961
B         -0.35289       -2.64798       -1.21508
