45
isomer_0374.log	Energy: -113318.3907297
B          2.63142        1.74420       -0.38538
B          2.58787        3.36649       -0.00688
B          1.15853        4.18290        0.22235
B         -0.29041        3.37065       -0.32889
B          1.10836        0.82804       -0.71613
B         -1.77578        0.85584       -0.80896
B         -1.68197        4.14119        0.34871
B          4.07484        0.80983       -0.33578
B         -1.69453        2.47896       -0.24082
B          4.01575        2.52735        0.14411
B         -0.26115        4.77056        0.48752
B         -3.11069        3.30186        0.35177
B         -3.15638        1.68141       -0.21505
B         -4.61948        0.85398        0.25690
B         -0.33237       -1.79669       -0.87960
B         -1.74586       -2.46147       -0.24114
B         -3.18343       -1.63275       -0.21888
B         -4.62467       -0.78136        0.25276
B         -4.49376       -2.35949        0.52500
B         -3.15628       -3.26118        0.35103
B         -1.73666       -4.11941        0.35212
B         -0.32495       -3.36928       -0.33748
B         -0.31259       -4.76005        0.48251
B          2.54671       -3.38101       -0.02541
B          1.13359       -4.19031        0.21129
B          2.60297       -1.73134       -0.41307
B          3.96490       -2.54749        0.12692
B          4.05494       -0.88792       -0.33380
B          1.16927       -2.58371       -0.56726
B          1.16554        2.57603       -0.55812
B         -3.25379        0.12475       -0.62071
B          1.20142       -0.82435       -0.71932
B         -4.46914        2.43259        0.52844
B          5.30722        1.69775        0.62837
B          5.28489        0.04149        0.39568
B          5.26909       -1.75255        0.62577
B          6.40201       -0.81529        1.22213
B          6.43694        0.71432        1.23151
B         -1.79749       -0.80308       -0.81240
B          2.42335        0.39988       -0.89464
B         -0.31144        1.75441       -0.86396
B         -5.90945        1.66204        0.70562
B         -6.10032        0.00549        0.75292
B         -5.92441       -1.66907        0.76132
B         -0.27260       -0.59423       -0.44107
