45
isomer_3740.log	Energy: -113310.3718226
B         -2.54464       -1.17806       -0.39119
B         -2.53165       -3.22413       -0.07450
B         -1.16289       -4.02676        0.21903
B          0.31115       -3.33841       -0.42331
B         -1.19647       -0.81722       -1.23610
B          1.73560       -0.83381       -0.98479
B          1.61379       -4.04434        0.50191
B         -3.97821       -0.62810       -0.23462
B          1.75233       -2.49633       -0.42558
B         -3.76240       -2.32166        0.04485
B          0.19718       -4.60999        0.56997
B          2.96572       -3.20556        0.48838
B          3.14206       -1.69508       -0.18097
B          4.46658       -0.81132        0.30842
B          0.29974        1.81184       -1.10040
B          1.71556        2.50450       -0.53972
B          3.11552        1.71704       -0.29049
B          4.49620        0.83144        0.22782
B          4.38676        2.48413        0.62330
B          3.00951        3.26945        0.24847
B          1.65476        4.13929        0.24088
B          0.29916        3.37850       -0.53687
B          0.25976        4.72928        0.34119
B         -2.48453        3.33341       -0.05655
B         -1.13799        4.14923        0.05962
B         -2.59034        1.67540       -0.56120
B         -3.80478        2.49428        0.34777
B         -4.05372        0.99185       -0.29594
B         -1.21714        2.55417       -0.73045
B         -1.11609       -2.55229       -0.80666
B          3.26777       -0.02489       -0.54845
B         -1.17667        0.81886       -1.05105
B          4.39013       -2.43109        0.84323
B         -4.93987       -1.53581        0.89744
B         -5.05436        0.14206        0.73233
B         -5.05866        1.79653        0.99471
B         -5.99254        0.83523        1.84056
B         -5.82004       -0.68003        1.86260
B          1.73789        0.80224       -0.95845
B         -2.53095       -2.26243       -1.51015
B          0.36001       -1.84120       -1.17300
B          5.49802       -1.52110        1.31688
B          5.69982        0.03964        1.24144
B          5.50726        1.58427        1.17775
B          0.27164       -0.00303       -1.01810
