45
isomer_3743.log	Energy: -113478.5871100
B         -2.52885        1.65139        0.57072
B         -2.49467        3.31193       -0.05524
B         -1.12147        4.09455       -0.27350
B          0.31361        3.38655        0.35568
B         -1.16154        0.90175        1.02387
B          1.77693        0.89933        0.93972
B          1.69425        4.14662       -0.41706
B         -3.94342        0.92361        0.29210
B          1.75501        2.55698        0.43649
B         -3.83751        2.50275       -0.10610
B          0.28778        4.69344       -0.57210
B          3.06660        3.29518       -0.35898
B          3.14984        1.75543        0.22168
B          4.49551        0.79614       -0.21635
B          0.18133       -1.59021        0.39408
B          1.66122       -2.47063        0.36203
B          3.11727       -1.69690        0.39707
B          4.58190       -0.84001        0.16878
B          4.39437       -2.46177       -0.43769
B          3.02930       -3.30528       -0.05754
B          1.65577       -4.12677       -0.12550
B          0.14088       -3.31485        0.57352
B          0.30591       -4.54155       -0.54409
B         -2.48178       -3.12645       -0.42732
B         -1.11813       -3.88215       -0.48959
B         -2.57163       -1.70990        0.61881
B         -3.83954       -2.30570       -0.38559
B         -3.93726       -0.81449        0.26044
B         -1.31770       -2.73846        1.05962
B         -1.17105        2.60325        0.64520
B          3.25608        0.05806        0.67096
B         -1.27843       -0.73449        0.73650
B          4.42228        2.45812       -0.72881
B         -5.22652        1.72346       -0.50284
B         -5.29033        0.07269       -0.09463
B         -5.22042       -1.52195       -0.64775
B         -6.31862       -0.60339       -1.21479
B         -6.32116        0.87109       -1.13501
B          1.66939       -0.74888        0.70474
B         -1.11654       -2.05331       -0.55131
B          0.34489        1.86437        1.04398
B          5.56364        1.52477       -1.13579
B          5.73324       -0.02069       -1.05130
B          5.45353       -1.54037       -0.99477
B          0.24603        0.05669        1.04766
