45
isomer_3744.log	Energy: -111322.2304369
B          2.54490        1.75266       -0.39254
B          2.52175        3.39341       -0.02508
B          1.10728        4.21488        0.20132
B         -0.33936        3.36769       -0.35287
B          1.09431        0.84769       -0.70189
B         -1.77986        0.85532       -0.80802
B         -1.74029        4.14809        0.31996
B          4.00936        0.88994       -0.30185
B         -1.71646        2.46441       -0.25916
B          3.93407        2.58487        0.14152
B         -0.32139        4.82324        0.46448
B         -3.16601        3.29067        0.33062
B         -3.17653        1.66482       -0.22358
B         -4.63378        0.84507        0.26888
B         -0.32646       -1.69067       -0.84467
B         -1.70836       -2.39118       -0.22306
B         -3.17108       -1.59603       -0.19934
B         -4.63107       -0.77392        0.28092
B         -4.46265       -2.32942        0.53890
B         -3.15516       -3.21342        0.37897
B         -1.72658       -4.06614        0.38102
B         -0.32825       -3.29115       -0.30337
B         -0.30544       -4.73433        0.53553
B          2.53292       -3.30245        0.02470
B          1.12120       -4.12517        0.26332
B          2.55061       -1.66728       -0.36712
B          3.94253       -2.48681        0.17922
B          4.01218       -0.79842       -0.28930
B          1.12306       -2.49521       -0.53384
B          1.11460        2.57326       -0.57152
B         -3.25446        0.13131       -0.60941
B          1.09701       -0.77185       -0.68985
B         -4.47055        2.40478        0.50371
B          5.25603        1.78617        0.66098
B          5.25755        0.15331        0.43917
B          5.26181       -1.67607        0.68671
B          6.42120       -0.71481        1.29012
B          6.41861        0.83787        1.27858
B         -1.77712       -0.79065       -0.79579
B          2.17201        0.41092       -0.99950
B         -0.33222        1.75935       -0.87031
B         -5.97946        1.69275        0.71240
B         -6.17212       -0.02029        0.78874
B         -5.97150       -1.74984        0.80861
B          1.15317       -2.20739       -1.11631
