45
isomer_3747.log	Energy: -113673.3912449
B         -2.52201       -1.75015       -0.46506
B         -2.46210       -3.33174        0.02751
B         -1.07965       -4.15238        0.13374
B          0.33077       -3.38337       -0.48546
B         -1.12244       -0.84406       -0.98914
B          1.78940       -0.83525       -0.92592
B          1.72285       -4.15059        0.26131
B         -3.98070       -0.88144       -0.25719
B          1.78952       -2.53845       -0.48228
B         -3.85506       -2.52314        0.24013
B          0.31362       -4.74345        0.37496
B          3.07409       -3.29272        0.26990
B          3.16694       -1.69701       -0.26814
B          4.53003       -0.81824        0.23084
B          0.32220        1.83565       -1.08867
B          1.74031        2.54387       -0.43545
B          3.14525        1.72268       -0.22962
B          4.56139        0.87263        0.12093
B          4.35016        2.47994        0.74962
B          3.03428        3.33206        0.26418
B          1.67241        4.16738        0.25191
B          0.28835        3.40579       -0.53093
B          0.25282        4.75039        0.35729
B         -2.48834        3.31701        0.05625
B         -1.13107        4.15944        0.11621
B         -2.54158        1.73794       -0.50427
B         -3.84594        2.50181        0.29953
B         -3.96124        0.86475       -0.19492
B         -1.17368        2.59286       -0.79297
B         -1.13664       -2.59317       -0.75530
B          3.30110       -0.00140       -0.62634
B         -1.15931        0.86463       -1.07554
B          4.39747       -2.46446        0.74330
B         -5.11588       -1.72192        0.78536
B         -5.21421       -0.01417        0.48913
B         -5.08636        1.66857        0.86766
B         -6.11701        0.72206        1.58468
B         -6.13831       -0.79950        1.53791
B          1.72687        0.83764       -0.77398
B         -2.57597       -0.01804       -0.66963
B          0.35879       -1.82622       -1.09795
B          5.47666       -1.54524        1.28506
B          5.63279        0.00582        1.28367
B          5.38999        1.54260        1.31716
B          0.33949        0.00060       -0.99949
