45
isomer_3748.log	Energy: -113530.7157372
B         -2.73854       -1.34826       -1.00590
B         -3.09739       -2.94022       -0.56407
B         -1.99851       -3.53370        0.36619
B         -0.30065       -2.75810       -0.10907
B         -1.03135       -0.84958       -0.95041
B          1.79047       -1.15688       -1.26882
B          0.74505       -3.19522        1.26411
B         -3.90610       -0.47856       -0.20605
B          1.33339       -2.33774       -0.07745
B         -4.40979       -1.95411       -0.71018
B         -0.83760       -3.32263        1.33189
B          2.29578       -2.94800        1.09291
B          2.88617       -1.87181       -0.10255
B          4.41124       -1.23620        0.19938
B          0.68489        1.38560       -0.66343
B          2.18783        2.07412       -0.60951
B          3.59350        1.23590       -0.75556
B          4.93614        0.16152       -0.59490
B          4.96326        1.91985       -0.08878
B          3.69068        2.83179       -0.33066
B          2.40368        3.79236       -0.04583
B          0.89015        3.06134       -0.22837
B          1.11424        4.50710        0.35676
B         -1.78666        3.30369        0.76094
B         -0.37783        3.98941        0.50783
B         -2.01222        1.62152        0.30965
B         -3.26539        2.69909        0.85342
B         -3.52777        1.06215        0.50062
B         -0.68164        2.42757       -0.16570
B         -1.51502       -2.48070       -1.25197
B          3.44317       -0.51273       -1.02289
B         -0.82722        0.74940       -0.48219
B          3.88700       -2.50997        1.20525
B         -5.57249       -0.94051       -0.37160
B         -5.09154        0.68498        0.04487
B         -4.79627        2.17699        0.84076
B         -6.25109        1.52617        0.72470
B         -6.59509        0.15607        0.18823
B          1.97338        0.44045       -0.97454
B         -1.77226       -1.83190        0.51360
B          0.26744       -1.77679       -1.35385
B          5.27588       -1.96025        1.33294
B          5.86062       -0.59017        0.82888
B          5.92726        0.87128        0.45932
B         -2.16881       -0.14433        0.25202
