45
isomer_3749.log	Energy: -113675.8856716
B         -2.50890       -1.76002       -0.48794
B         -2.42711       -3.33495        0.04056
B         -1.04727       -4.15751        0.12325
B          0.35135       -3.38548       -0.51489
B         -1.12953       -0.84933       -1.04201
B          1.78627       -0.83062       -0.91198
B          1.74846       -4.14409        0.24655
B         -3.95584       -0.91066       -0.21481
B          1.80214       -2.53279       -0.48846
B         -3.80952       -2.53734        0.29316
B          0.34204       -4.74612        0.35202
B          3.09209       -3.28004        0.26676
B          3.17312       -1.67978       -0.25973
B          4.53210       -0.79730        0.23767
B          0.31266        1.83048       -1.08685
B          1.72429        2.55144       -0.43085
B          3.12856        1.73324       -0.22005
B          4.54726        0.89463        0.14420
B          4.32626        2.50006        0.77033
B          3.00830        3.34077        0.27886
B          1.64154        4.17000        0.25871
B          0.26854        3.40254       -0.53760
B          0.21917        4.74794        0.35392
B         -2.51416        3.30360        0.03640
B         -1.15728        4.14913        0.10909
B         -2.56332        1.73037       -0.53069
B         -3.87012        2.48490        0.27510
B         -3.98404        0.84510       -0.22487
B         -1.18606        2.57727       -0.78859
B         -1.11888       -2.59004       -0.76446
B          3.29353        0.01623       -0.60914
B         -1.17027        0.85034       -1.06845
B          4.40713       -2.44378        0.74943
B         -5.06056       -1.73879        0.86488
B         -5.19559       -0.04454        0.52253
B         -5.10499        1.65170        0.84423
B         -6.10539        0.70685        1.60470
B         -6.08467       -0.81388        1.61247
B          1.71788        0.84335       -0.78777
B         -2.60948       -0.01616       -0.74589
B          0.36928       -1.82550       -1.11753
B          5.47392       -1.51806        1.30089
B          5.62073        0.03396        1.30345
B          5.37348        1.56991        1.33735
B          0.34285        0.00297       -1.09395
