45
isomer_0377.log	Energy: -113448.4713492
B          2.68999       -1.52366        0.80859
B          2.72151       -3.11260        0.19171
B          1.60070       -3.75559       -0.70870
B          0.10694       -3.10103        0.15560
B          1.16354       -0.74689        0.41195
B         -1.73396       -0.92956        1.08042
B         -1.26598       -3.61973       -0.91752
B          4.03372       -0.57332        0.60205
B         -1.53208       -2.43365        0.24382
B          4.11623       -2.17655        0.18039
B          0.23078       -3.80758       -1.30539
B         -2.74012       -3.20737       -0.57307
B         -3.05490       -1.80640        0.33555
B         -4.45566       -0.99118       -0.09352
B         -0.40446        1.70817        0.82788
B         -1.93955        2.41714        0.49373
B         -3.34574        1.54657        0.44646
B         -4.77682        0.58174        0.41193
B         -4.68938        2.25868       -0.27305
B         -3.37054        3.12168       -0.13303
B         -1.98888        3.92359       -0.39231
B         -0.52765        3.31112        0.25709
B         -0.59770        4.44092       -0.84759
B          2.28111        3.30156       -0.47068
B          0.89204        3.99204       -0.65875
B          2.45465        1.74043        0.35289
B          3.71495        2.51132       -0.44541
B          3.92295        1.09912        0.44336
B          0.97921        2.47413        0.04889
B          1.43507       -2.09533       -0.50680
B         -3.34730       -0.18660        0.89523
B          1.07041        0.88452        0.64991
B         -4.26302       -2.55359       -0.71618
B          5.35707       -1.36371       -0.25651
B          5.36269        0.32873        0.04064
B          5.17700        1.92786       -0.54474
B          6.43552        1.08494       -0.92087
B          6.47536       -0.39753       -0.86800
B         -1.86446        0.76976        0.85692
B          1.34857       -2.43672        1.23991
B         -0.18199       -1.72629        1.12849
B         -5.54274       -1.80891       -0.94390
B         -5.87879       -0.28099       -0.75694
B         -5.75046        1.22852       -0.69072
B         -0.31782       -0.01775        0.92028
