45
isomer_0379.log	Energy: -113675.8840307
B          2.56121       -1.73150        0.52880
B          2.51062       -3.30418       -0.03723
B          1.15268       -4.14902       -0.11060
B         -0.27154       -3.40193        0.53656
B          2.60945        0.01500        0.74588
B         -1.71992       -0.84310        0.79518
B         -1.64545       -4.16820       -0.25949
B          3.98293       -0.84744        0.22447
B         -1.72728       -2.55048        0.43380
B          3.86789       -2.48682       -0.27592
B         -0.22409       -4.74762       -0.35461
B         -3.01103       -3.33751       -0.27887
B         -3.13053       -1.73131        0.22317
B         -4.54623       -0.89073       -0.14944
B         -0.36680        1.82606        1.11646
B         -1.79943        2.53342        0.48678
B         -3.17173        1.68178        0.25850
B         -4.53349        0.80141       -0.23281
B         -4.40433        2.44581       -0.75047
B         -3.08879        3.28209       -0.26717
B         -1.74440        4.14480       -0.24746
B         -0.34787        3.38557        0.51517
B         -0.33755        4.74576       -0.35302
B          2.43014        3.33310       -0.04119
B          1.05097        4.15699       -0.12341
B          2.51089        1.75889        0.48963
B          3.81163        2.53521       -0.29288
B          3.95693        0.90790        0.21520
B          1.12172        2.58975        0.76656
B          1.18362       -2.57798        0.78876
B         -3.29365       -0.01519        0.60874
B          1.13206        0.84911        1.04661
B         -4.32944       -2.49751       -0.77008
B          5.10333       -1.65506       -0.84556
B          5.19532        0.04129       -0.52319
B          5.06200        1.73551       -0.86477
B          6.08490        0.81000       -1.61310
B          6.10393       -0.71092       -1.60604
B         -1.78239        0.83085        0.90616
B          1.16865       -0.85028        1.06922
B         -0.31444       -1.83082        1.08919
B         -5.37790       -1.56875       -1.33693
B         -5.62011       -0.03161       -1.30439
B         -5.46993        1.52006       -1.30302
B         -0.34256       -0.00238        1.09680
