45
isomer_0038.log	Energy: -113379.4147046
B          2.76133        1.56683       -0.63511
B          2.76634        3.27292        0.05745
B          1.43275        4.07924        0.14986
B         -0.03940        3.26053       -0.29202
B          1.39645        0.77951       -0.99412
B         -1.61325        0.79405       -0.86036
B         -1.40466        4.21468        0.12702
B          4.11362        0.81324       -0.20251
B         -1.54398        2.55171       -0.60121
B          4.01727        2.39742        0.22042
B          0.03144        4.73368        0.29919
B         -2.79383        3.44721        0.09315
B         -2.97278        1.82544       -0.30374
B         -4.46213        1.06840        0.00633
B         -0.14665       -1.74602       -1.44623
B         -2.21369       -2.77067       -0.63306
B         -3.10794       -1.53595        0.05166
B         -4.36897       -0.50816        0.55579
B         -4.40770       -2.12251        1.12671
B         -3.17750       -3.05619        0.68378
B         -1.80948       -3.88264        0.61742
B         -0.51576       -3.28190       -0.58742
B         -0.42535       -4.41666        0.60231
B          2.38381       -3.21735        0.17463
B          0.94663       -3.93599        0.25427
B          2.58280       -1.65284       -0.56752
B          3.74977       -2.43650        0.38106
B          3.96721       -0.91502       -0.13694
B          1.13657       -2.49942       -0.56353
B          1.38481        2.35787       -0.34194
B         -3.17764        0.08147       -0.50949
B          1.25108       -0.85806       -1.13417
B         -4.17583        2.72498        0.49818
B          5.32802        1.51861        0.73362
B          5.32783       -0.12387        0.34938
B          5.14955       -1.74323        0.83856
B          6.24313       -0.90525        1.49267
B          6.31264        0.58346        1.46550
B         -1.83668       -0.89135       -1.14801
B         -0.17761       -0.03894       -1.08382
B         -0.12293        1.68719       -0.82213
B         -5.27571        1.88745        1.12864
B         -5.59035        0.40341        1.33388
B         -5.47721       -1.12631        1.52588
B         -1.44598       -2.38448       -1.90401
