45
isomer_0380.log	Energy: -113439.1390598
B         -2.48525        1.74635        0.51789
B         -2.43291        3.40118       -0.08277
B         -1.06723        4.17193       -0.28694
B          0.38317        3.40687        0.29109
B         -1.14973        0.94666        1.06398
B          1.76393        0.87966        0.73517
B          1.76012        4.13963       -0.45276
B         -3.81900        0.97556        0.19539
B          1.80341        2.55244        0.41286
B         -3.84210        2.63288       -0.05213
B          0.36539        4.73498       -0.59064
B          3.14158        3.28353       -0.36952
B          3.19645        1.71842        0.17203
B          4.62976        0.78040        0.02246
B          0.30786       -1.66937        1.31759
B          1.59949       -2.48359        0.57812
B          3.06265       -1.70943        0.35340
B          4.42848       -0.86089       -0.20129
B          4.31370       -2.51919       -0.57804
B          2.88864       -3.24386       -0.14458
B          1.45384       -3.95650       -0.26034
B         -0.03578       -3.24180        0.38005
B          0.13647       -4.46578       -0.71332
B         -2.60243       -3.18613       -0.81062
B         -1.29054       -4.03918       -0.85620
B         -2.45102       -1.72775        0.43423
B         -3.69651       -2.14666       -0.63927
B         -3.75385       -0.71630        0.11169
B         -1.78373       -3.40439        0.57124
B         -1.13558        2.65903        0.59523
B          3.26930        0.00412        0.67460
B         -1.26015       -0.65026        1.03726
B          4.45414        2.41317       -0.71259
B         -5.16490        1.87586       -0.46662
B         -5.20171        0.17648       -0.13896
B         -5.13329       -1.36441       -0.75911
B         -6.29704       -0.51141       -1.19074
B         -6.20970        0.97606       -1.16157
B          1.70488       -0.77421        1.01683
B         -1.12795       -2.30919        1.44604
B          0.37032        1.87527        0.96211
B          5.49036        1.39239       -1.17686
B          5.68686       -0.14303       -1.12370
B          5.46887       -1.69466       -1.08390
B          0.26077        0.07513        0.96322
