45
isomer_0383.log	Energy: -113470.1409618
B         -2.62610       -1.60894       -1.05203
B         -2.68271       -3.28573       -0.55914
B         -1.47290       -3.90175        0.20182
B         -0.01079       -3.23380       -0.41610
B         -2.41843        0.16849       -0.97753
B          1.62822       -0.85602       -0.90995
B          1.31030       -3.98952        0.55887
B         -3.86454       -0.62710       -0.41418
B          1.50935       -2.46926       -0.25192
B         -3.70185       -2.27603        0.13347
B         -0.13347       -4.39897        0.72677
B          2.73846       -3.32679        0.45531
B          2.96152       -1.77433       -0.16576
B          4.42277       -0.97960        0.14448
B          0.44805        1.71321       -0.81794
B          1.90391        2.46931       -0.47568
B          3.29433        1.56875       -0.33858
B          4.71092        0.63930       -0.18026
B          4.60241        2.31296        0.45740
B          3.30930        3.17001        0.16211
B          1.96123        4.06934        0.30462
B          0.53782        3.38592       -0.34430
B          0.59502        4.70425        0.53475
B         -2.30308        3.49145        0.00115
B         -0.84740        4.20032        0.25616
B         -2.42504        1.88999       -0.60158
B         -3.71274        2.72595        0.15218
B         -3.87334        1.10641       -0.45549
B         -0.97804        2.63926       -0.44824
B         -1.27427       -2.51102       -1.34857
B          3.22786       -0.11274       -0.66552
B         -0.99982        0.93297       -0.89855
B          4.19558       -2.57523        0.76107
B         -4.76721       -1.40918        0.90953
B         -4.93644        0.24177        0.52834
B         -4.93754        1.96585        0.73759
B         -5.85229        1.04476        1.59136
B         -5.71939       -0.44919        1.73485
B          1.75280        0.77819       -0.76208
B         -1.57397       -2.19845        0.37296
B          0.24526       -1.71903       -1.15979
B          5.41297       -1.77216        1.11937
B          5.74911       -0.22956        0.98882
B          5.63868        1.29094        0.96213
B         -1.04451       -0.80500       -0.55193
