45
isomer_0384.log	Energy: -113401.5700114
B         -2.59253       -1.39917       -0.45410
B         -2.50949       -3.09437        0.19429
B         -1.41067       -4.05872        0.80365
B          0.16763       -3.27374       -0.61391
B         -1.26061       -0.66519       -1.14622
B          1.70876       -0.78383       -0.74045
B          1.48564       -4.03616        0.21211
B         -3.95421       -0.65379       -0.17773
B          1.64471       -2.49307       -0.49296
B         -3.84447       -2.18041        0.37617
B          0.01644       -4.49804        0.49418
B          2.91833       -3.29032        0.26545
B          3.09679       -1.70499       -0.21933
B          4.59500       -0.89867       -0.00953
B          0.38451        1.83431       -1.12885
B          1.83762        2.57384       -0.39140
B          3.18228        1.70035       -0.17255
B          4.51774        0.76149        0.30990
B          4.48037        2.41159        0.79379
B          3.13503        3.27522        0.37461
B          1.76189        4.10657        0.35385
B          0.37426        3.42530       -0.47807
B          0.33589        4.70098        0.47184
B         -2.44774        3.42851       -0.08301
B         -1.06177        4.17333        0.10855
B         -2.52456        1.79530       -0.60574
B         -3.82573        2.62203        0.14527
B         -3.90861        1.00565       -0.16854
B         -1.15692        2.65911       -0.77223
B         -1.30519       -2.32385       -0.95555
B          3.27656        0.00843       -0.58787
B         -1.17456        0.97620       -1.15572
B          4.28639       -2.52018        0.65445
B         -5.19680       -1.45174        0.80893
B         -5.28298        0.21935        0.37446
B         -5.08612        1.87179        0.74801
B         -6.14384        0.95223        1.50661
B         -6.25887       -0.53495        1.45498
B          1.84198        0.93722       -0.96078
B         -1.34855       -3.93740       -0.77007
B          0.27328       -1.54708       -0.92387
B          5.40044       -1.60856        1.17718
B          5.70064       -0.10309        1.18408
B          5.57295        1.47650        1.24860
B          0.29906        0.14204       -1.05249
