45
isomer_0385.log	Energy: -113473.5887981
B         -2.60521        1.57245        0.74196
B         -2.60540        3.27032       -0.04387
B         -1.26901        4.06918       -0.26473
B          0.21362        3.37343        0.28769
B         -1.19486        0.87096        1.09247
B          1.71319        0.91773        0.79667
B          1.56668        4.16472       -0.47419
B         -4.00849        0.85599        0.43387
B          1.66648        2.57356        0.39209
B         -3.88429        2.41195       -0.04894
B          0.14374        4.67999       -0.61783
B          2.97630        3.35927       -0.40995
B          3.10991        1.83256        0.20395
B          4.55333        0.92648        0.00073
B          0.26489       -1.58782        0.50127
B          1.73386       -2.45456        0.47715
B          3.14000       -1.65834        0.47369
B          4.38066       -0.71448       -0.21637
B          4.47833       -2.39149       -0.41417
B          3.09075       -3.23969       -0.08512
B          1.76261       -4.09532       -0.15764
B          0.22015       -3.30614        0.54189
B          0.42638       -4.50971       -0.60723
B         -2.35799       -3.10692       -0.51710
B         -0.98803       -3.84974       -0.58872
B         -2.50247       -1.73320        0.56426
B         -3.74957       -2.33670       -0.46593
B         -3.90304       -0.87941        0.24159
B         -1.26069       -2.75583        1.02009
B         -1.24630        2.48232        0.45868
B          3.21398        0.11690        0.61520
B         -1.21639       -0.75413        0.72789
B          4.35281        2.55947       -0.69699
B         -5.27923        1.62785       -0.41541
B         -5.29424       -0.03134       -0.07891
B         -5.13812       -1.58936       -0.72333
B         -6.26187       -0.68184       -1.26363
B         -6.34137        0.78128       -1.09837
B          1.72479       -0.74605        1.06018
B         -0.97901       -2.03104       -0.55848
B          0.27235        1.80823        0.87212
B          5.47679        1.59668       -1.11620
B          5.73350        0.08018       -0.99852
B          5.59703       -1.50112       -0.89485
B          0.27350        0.02273        1.25304
