45
isomer_0386.log	Energy: -113376.5998704
B          2.34213        1.80065       -0.50084
B          2.36659        3.45478       -0.01719
B          1.02254        4.23972        0.17687
B         -0.46230        3.49381       -0.44446
B          0.96746        1.06371       -1.12946
B         -1.68666        0.85889       -0.99491
B         -1.79894        4.12137        0.42705
B          3.76252        0.97058       -0.14887
B         -1.80365        2.53637       -0.37934
B          3.69266        2.65918        0.23621
B         -0.38936        4.74963        0.55143
B         -3.13475        3.21638        0.37596
B         -3.13810        1.67657       -0.22408
B         -4.43111        0.72171        0.28242
B         -0.34840       -1.86058       -1.11016
B         -1.61559       -2.53276       -0.29724
B         -3.00644       -1.76526       -0.22057
B         -4.37122       -0.90316        0.22908
B         -4.32066       -2.53379        0.69115
B         -2.91485       -3.28403        0.41593
B         -1.55578       -4.13964        0.47237
B         -0.21516       -3.45794       -0.38616
B         -0.14920       -4.73072        0.57485
B          2.60729       -3.41618        0.09494
B          1.25965       -4.18107        0.22796
B          2.62215       -1.88126       -0.59960
B          3.92904       -2.46268        0.31949
B          3.87584       -0.83486       -0.18526
B          1.21291       -2.72060       -0.73145
B          0.97700        2.72166       -0.72663
B         -3.13993       -0.02312       -0.57739
B          0.33054       -0.35175       -1.12011
B         -4.49166        2.38283        0.66528
B          4.93590        1.87384        0.81023
B          4.99320        0.17603        0.56298
B          5.10174       -1.54261        0.83769
B          6.08441       -0.51692        1.53655
B          6.01767        0.96573        1.53950
B         -1.61486       -0.83429       -0.94939
B          2.40612       -0.03843       -0.76774
B         -0.46382        1.91169       -1.13885
B         -5.64355        1.43363        1.02988
B         -5.75479       -0.12324        1.03330
B         -5.50955       -1.65295        1.07800
B          1.45295       -1.24093       -1.51942
