45
isomer_0387.log	Energy: -112706.0313159
B         -2.62440        1.71148        0.40642
B         -2.61496        3.34837        0.02157
B         -1.20762        4.17756       -0.22058
B          0.24785        3.34671        0.33524
B         -1.16576        0.82030        0.71799
B          1.70876        0.84974        0.80959
B          1.63974        4.13002       -0.35281
B         -4.08299        0.83733        0.33218
B          1.63098        2.45243        0.24413
B         -4.02219        2.52797       -0.12940
B          0.21528        4.79338       -0.49731
B          3.07157        3.28282       -0.36160
B          3.09661        1.66304        0.20963
B          4.55731        0.84864       -0.28147
B          0.27406       -1.70612        0.88037
B          1.65790       -2.40320        0.25924
B          3.11469       -1.59784        0.21979
B          4.56629       -0.77037       -0.27643
B          4.40787       -2.32967       -0.51717
B          3.10763       -3.22133       -0.34135
B          1.68528       -4.08428       -0.32724
B          0.28477       -3.31218        0.35597
B          0.26827       -4.76427       -0.46756
B         -2.57783       -3.34754        0.04242
B         -1.16138       -4.16256       -0.19462
B         -2.60543       -1.70849        0.41706
B         -3.99407       -2.54375       -0.11361
B         -4.07363       -0.85105        0.33744
B         -1.17111       -2.52432        0.58533
B         -1.19921        2.54419        0.56955
B          3.18757        0.13429        0.61121
B         -1.15679       -0.79926        0.72303
B          4.38162        2.40457       -0.53190
B         -5.34088        1.71433       -0.63375
B         -5.32947        0.08394       -0.39475
B         -5.32168       -1.74794       -0.62298
B         -6.49098       -0.80149       -1.23064
B         -6.49959        0.75121       -1.23548
B          1.71789       -0.79626        0.81472
B         -0.49102        0.02806        1.97842
B          0.25493        1.74393        0.86963
B          5.89460        1.70125       -0.74065
B          6.09929       -0.01108       -0.79991
B          5.91112       -1.74213       -0.80054
B          0.14910       -0.67043       -0.66915
