45
isomer_0388.log	Energy: -113472.5844397
B         -2.50252       -1.73454       -0.57210
B         -2.35478       -3.10408        0.51068
B         -0.98736       -3.83616        0.59663
B          0.21790       -3.31193       -0.53222
B         -1.21761       -0.74902       -0.70208
B          1.71944       -0.74536       -1.05604
B          1.75932       -4.09633        0.17750
B         -3.89602       -0.87889       -0.24522
B          1.72614       -2.46072       -0.44049
B         -3.75477       -2.33372        0.45540
B          0.42924       -4.49622        0.62410
B          3.08789       -3.24457        0.09792
B          3.13193       -1.66042       -0.45871
B          4.38810       -0.71294        0.20800
B          0.26871        1.81154       -0.87106
B          1.66403        2.57586       -0.40618
B          3.09993        1.82563       -0.19597
B          4.55914        0.92951       -0.02790
B          4.35101        2.56389        0.68289
B          2.97117        3.35617        0.40590
B          1.56568        4.16156        0.47718
B          0.21186        3.36896       -0.27751
B          0.14201        4.68048        0.62795
B         -2.60467        3.25852        0.05833
B         -1.27301        4.06255        0.28184
B         -2.59838        1.57728       -0.72997
B         -3.86634        2.41361        0.05710
B         -3.99215        0.86497       -0.42955
B         -1.24512        2.48007       -0.44749
B         -1.26929       -2.76509       -1.02317
B          3.21094        0.11408       -0.62280
B         -1.19554        0.87435       -1.08320
B          4.47860       -2.39359        0.42760
B         -5.14396       -1.59175        0.70591
B         -5.28608       -0.02489        0.07145
B         -5.26623        1.63830        0.41532
B         -6.34967        0.78185        1.09276
B         -6.27302       -0.69143        1.24520
B          1.70415        0.91496       -0.79453
B         -0.97028       -2.02786        0.54719
B          0.26026       -1.60836       -0.57075
B          5.60592       -1.50041        0.89387
B          5.74218        0.08290        0.98248
B          5.48373        1.60126        1.09377
B          0.26752        0.02999       -1.25004
