45
isomer_0389.log	Energy: -111672.8176235
B         -2.59604       -1.57914       -0.39200
B         -2.60729       -3.21123        0.01270
B         -1.21058       -4.05479        0.26649
B          0.25562       -3.24886       -0.29774
B         -1.12616       -0.70996       -0.71273
B          1.74787       -0.77613       -0.80073
B          1.63702       -4.04093        0.40134
B         -4.04375       -0.68614       -0.33003
B          1.64966       -2.37074       -0.21593
B         -4.00437       -2.37167        0.15211
B          0.20430       -4.68478        0.55228
B          3.07924       -3.21151        0.40145
B          3.12493       -1.59922       -0.18938
B          4.59514       -0.79708        0.29345
B          0.34505        1.79627       -0.90415
B          1.73683        2.48364       -0.28997
B          3.18348        1.66082       -0.23910
B          4.62421        0.82152        0.26877
B          4.48492        2.38548        0.49037
B          3.19601        3.29097        0.30228
B          1.78449        4.17125        0.27609
B          0.37517        3.40833       -0.39927
B          0.37589        4.87041        0.40654
B         -2.48707        3.48297       -0.08940
B         -1.06085        4.28319        0.13931
B         -2.53464        1.83995       -0.44415
B         -3.91332        2.69875        0.07477
B         -4.01344        1.00180       -0.35578
B         -1.09014        2.63583       -0.62069
B         -1.18114       -2.43137       -0.54341
B          3.23524       -0.07671       -0.60938
B         -1.09709        0.90919       -0.73742
B          4.39992       -2.34755        0.56256
B         -5.31337       -1.53568        0.64507
B         -5.28149        0.09142        0.38630
B         -5.25121        1.92570        0.59227
B         -6.43275        1.00127        1.21007
B         -6.46063       -0.55103        1.23374
B          1.77742        0.86944       -0.82583
B         -2.02654       -0.93934       -0.00041
B          0.28311       -1.65290       -0.85154
B          5.92130       -1.66055        0.76446
B          6.14716        0.04970        0.80315
B          5.98048        1.78284        0.78255
B         -0.41258       -2.92343       -1.16906
