45
isomer_0390.log	Energy: -113598.5324520
B         -2.55091        1.36109        0.01244
B         -2.33969        3.10778       -0.32389
B         -0.94077        3.81412       -0.34214
B          0.51951        2.85861       -0.37370
B         -1.12121        0.46471        0.34091
B          1.83735        0.50545        0.70663
B          1.91533        3.85234       -0.14386
B         -4.04477        1.06472        0.66593
B          1.89458        2.18769        0.33153
B         -3.77296        2.45550       -0.27414
B          0.52426        4.43835       -0.28890
B          3.32536        3.02753        0.10075
B          3.33473        1.40930        0.49831
B          4.79121        0.51014        0.60382
B          0.46611       -1.83018        1.59973
B          1.23648       -1.90552       -0.12048
B          2.96800       -1.80880        0.19099
B          4.48400       -0.99667       -0.14388
B          4.00023       -2.36230       -1.08529
B          2.47867       -2.82529       -0.98748
B          0.99421       -3.28645       -1.10166
B         -0.35223       -2.72543        0.16544
B         -0.46811       -3.47891       -1.31628
B         -3.06771       -2.16063       -0.50077
B         -1.75841       -2.99496       -0.82731
B         -2.73357       -0.42655        0.25571
B         -3.65957       -1.81128        1.02993
B         -4.29792       -0.45399        1.22618
B         -2.11170       -2.47879        0.92654
B         -1.02423        2.18441        0.05425
B          3.39191       -0.30002        1.00368
B         -1.11704       -1.02047        0.95141
B          4.69689        2.21495       -0.04158
B         -5.08399        1.69479       -0.68925
B         -5.36635        0.14517        0.05450
B         -4.30960       -1.20467       -0.52345
B         -5.45415       -0.47585       -1.43234
B         -6.13048        0.80191       -1.30598
B          1.88685       -1.08031        1.35090
B         -0.88685       -2.48236        1.85208
B          0.44581        1.27769        0.16815
B          5.74285        1.20201       -0.47491
B          5.83695       -0.29738       -0.82370
B          5.38786       -1.70974       -1.22976
B          0.43306       -0.46173        0.26094
