45
isomer_0391.log	Energy: -111815.2332086
B          2.62593       -1.64301        0.33497
B          2.61761       -3.27150       -0.08402
B          1.21094       -4.09560       -0.34662
B         -0.24590       -3.27670        0.22317
B          1.16646       -0.75869        0.66183
B         -1.70826       -0.79034        0.74633
B         -1.63612       -4.04561       -0.48423
B          4.08455       -0.76735        0.28231
B         -1.62896       -2.38086        0.14766
B          4.02504       -2.44798       -0.21465
B         -0.21124       -4.70565       -0.63936
B         -3.06806       -3.19857       -0.47852
B         -3.09463       -1.59108        0.12638
B         -4.55435       -0.76675       -0.35088
B         -0.27411        1.76363        0.87374
B         -1.65666        2.47339        0.26421
B         -3.11324        1.66888        0.20465
B         -4.56359        0.85180       -0.31202
B         -4.40487        2.41581       -0.51975
B         -3.10516        3.30374       -0.32241
B         -1.68298        4.16636       -0.28707
B         -0.28389        3.38030        0.38300
B         -0.26577        4.84929       -0.40995
B          2.57940        3.42251        0.07669
B          1.16336        4.24216       -0.14644
B          2.60642        1.77599        0.41706
B          3.99611        2.62231       -0.09291
B          4.07492        0.92055        0.32283
B          1.17159        2.58796        0.59911
B          1.20051       -2.47910        0.47746
B         -3.18673       -0.07107        0.55962
B          1.15722        0.86041        0.70070
B         -4.37786       -2.31708       -0.63338
B          5.34474       -1.62383       -0.69892
B          5.33254        0.00121       -0.42591
B          5.32499        1.83745       -0.61582
B          6.49580        0.90404       -1.24051
B          6.50465       -0.64821       -1.27777
B         -1.71765        0.85518        0.78584
B          0.30318       -0.79194        0.26843
B         -0.25443       -1.68544        0.79093
B         -5.89047       -1.60971       -0.83079
B         -6.09530        0.10346       -0.85470
B         -5.90739        1.83417       -0.81872
B         -0.05832       -1.87451        2.83840
