45
isomer_0392.log	Energy: -113410.6566322
B         -2.59436       -1.57000       -0.81668
B         -2.68445       -3.39064       -0.66924
B         -1.37117       -3.96109        0.12851
B          0.18433       -3.28249       -0.47423
B         -1.02872       -0.67765       -1.01693
B          1.70831       -0.82990       -0.91081
B          1.45893       -4.03142        0.40957
B         -3.92007       -0.59077       -0.36963
B          1.63351       -2.44505       -0.33649
B         -3.86047       -2.24863        0.28545
B          0.02231       -4.51528        0.53196
B          2.89739       -3.28813        0.37408
B          3.10001       -1.77578       -0.22841
B          4.53288       -0.96295        0.18848
B          0.51110        1.69221       -0.96364
B          1.92905        2.44167       -0.39836
B          3.32376        1.59231       -0.28984
B          4.65388        0.66497        0.12140
B          4.67866        2.30990        0.57250
B          3.31204        3.14115        0.25028
B          1.97283        4.05838        0.28715
B          0.56321        3.40239       -0.45911
B          0.60073        4.72002        0.42716
B         -2.27530        3.49134       -0.00786
B         -0.83640        4.21550        0.11958
B         -2.40339        1.93740       -0.47784
B         -3.72309        2.74995        0.25903
B         -3.85112        1.10229       -0.26966
B         -0.94933        2.68190       -0.64579
B         -1.24745       -2.42856       -0.92468
B          3.29955       -0.09369       -0.59799
B         -0.99500        0.95431       -0.86839
B          4.35432       -2.57956        0.67187
B         -5.13676       -1.39522        0.73663
B         -5.10017        0.26739        0.44206
B         -4.99243        2.02073        0.75499
B         -6.03721        1.10553        1.45765
B         -6.10307       -0.41452        1.46319
B          1.81986        0.77899       -0.89290
B         -2.54312       -2.75700        0.71363
B          0.32173       -1.66338       -1.07382
B          5.57077       -1.75052        1.07544
B          5.87321       -0.20889        1.02488
B          5.77418        1.34356        1.01823
B         -2.44345        0.18921       -0.62141
