45
isomer_0393.log	Energy: -113432.6301174
B         -2.63020       -1.51785       -0.59636
B         -2.43112       -3.07632        0.13085
B         -1.22204       -4.04028        0.08213
B          0.24132       -3.51895       -1.10216
B         -1.23570       -0.72400       -1.08523
B          1.67273       -0.74738       -0.91036
B          1.54118       -4.04661        0.13700
B         -4.01216       -0.74448       -0.32435
B          1.53645       -2.44703       -0.32062
B         -3.77325       -2.21560        0.43151
B          0.16218       -4.63383        0.23077
B          2.93572       -3.19310        0.28551
B          3.05279       -1.67272       -0.19339
B          4.44053       -0.76123        0.28152
B          0.32333        1.85265       -1.11018
B          1.74253        2.56845       -0.49161
B          3.13381        1.76258       -0.25459
B          4.46187        0.87957        0.26318
B          4.39068        2.52003        0.73290
B          3.01044        3.31414        0.31922
B          1.65512        4.15937        0.29563
B          0.27902        3.41443       -0.53770
B          0.22969        4.73865        0.38122
B         -2.54225        3.35214       -0.14793
B         -1.14897        4.15996        0.05945
B         -2.61020        1.73182       -0.59745
B         -3.89300        2.51181        0.17977
B         -4.05806        0.92664       -0.33798
B         -1.22228        2.57862       -0.74966
B         -1.22080       -2.50465       -0.85567
B          3.23250        0.06859       -0.53596
B         -1.22875        0.83727       -1.01339
B          4.27725       -2.41390        0.71981
B         -5.10518       -1.58715        0.93217
B         -5.23402        0.07291        0.51394
B         -5.09218        1.73282        0.81469
B         -6.16249        0.80223        1.58973
B         -6.19357       -0.68805        1.58318
B          1.74673        0.88480       -1.00093
B         -0.02863       -2.76668        0.52081
B          0.24124       -1.76446       -1.09541
B          5.41269       -1.51507        1.27086
B          5.62200        0.02010        1.28081
B          5.45692        1.61446        1.26760
B          0.24611        0.07532       -1.04335
