45
isomer_0395.log	Energy: -113348.5368983
B          2.68768       -1.34012        0.54257
B          2.73014       -3.09125        0.30452
B          1.43403       -3.78456       -0.51894
B         -0.09199       -3.32867        0.51058
B          1.23567       -0.59490        0.57884
B         -1.67434       -0.90043        0.82809
B         -1.42341       -4.00361       -0.52112
B          4.10464       -0.56483        0.49945
B         -1.55861       -2.48812        0.24722
B          4.09319       -2.19350        0.17994
B          0.10006       -4.39582       -0.72014
B         -2.79659       -3.33215       -0.55408
B         -2.99085       -1.73704        0.06204
B         -4.43829       -0.96344       -0.19817
B         -0.40242        1.82391        1.01256
B         -1.90687        2.51673        0.53031
B         -3.27977        1.59325        0.37799
B         -4.68845        0.64157        0.18207
B         -4.62104        2.32289       -0.38927
B         -3.31860        3.20333       -0.11724
B         -1.93853        4.03608       -0.24680
B         -0.49965        3.44905        0.55371
B         -0.52744        4.57683       -0.57166
B          2.31844        3.42900       -0.28080
B          0.93949        4.15961       -0.36708
B          2.48146        1.82115        0.43497
B          3.68462        2.56905       -0.48659
B          3.93026        1.11675        0.30232
B          1.03928        2.64575        0.38919
B          1.31071       -2.16355       -0.08180
B         -3.27361       -0.13786        0.66007
B          1.07026        0.99685        0.77046
B         -4.25838       -2.55008       -0.83879
B          5.33564       -1.40289       -0.40454
B          5.31107        0.30984       -0.26498
B          5.05421        1.89750       -0.83750
B          6.24610        1.00972       -1.37382
B          6.34486       -0.46962       -1.21116
B         -1.80108        0.82251        0.83056
B         -0.29162        0.06290        1.03891
B         -0.07933       -1.69516        0.89264
B         -5.46978       -1.73369       -1.15759
B         -5.80106       -0.19726       -0.96403
B         -5.68863        1.32652       -0.87306
B          1.36852       -3.26225        1.25012
