45
isomer_0396.log	Energy: -111868.1955819
B          2.60618       -1.63869        0.37445
B          2.60020       -3.27499       -0.01296
B          1.19448       -4.10777       -0.25221
B         -0.26164       -3.28191        0.30928
B          1.14599       -0.75212        0.69181
B         -1.72816       -0.78982        0.79197
B         -1.65338       -4.06806       -0.37584
B          4.06208       -0.76031        0.29723
B         -1.64756       -2.39139        0.22373
B          4.00465       -2.45039       -0.16685
B         -0.22750       -4.72716       -0.52566
B         -3.08761       -3.22489       -0.37899
B         -3.11551       -1.60609        0.19489
B         -4.57996       -0.79504       -0.29055
B         -0.30046        1.76997        0.86251
B         -1.68812        2.46411        0.24664
B         -3.14274        1.65471        0.21027
B         -4.59349        0.82392       -0.28291
B         -4.44019        2.38405       -0.52164
B         -3.14194        3.27909       -0.34831
B         -1.72200        4.14603       -0.33709
B         -0.31727        3.37681        0.34069
B         -0.30734        4.83024       -0.48057
B          2.54427        3.42075        0.01862
B          1.12481        4.23214       -0.21287
B          2.57761        1.78119        0.39058
B          3.96229        2.62121       -0.14292
B          4.04798        0.92802        0.30520
B          1.14151        2.59270        0.56444
B          1.18385       -2.47568        0.54053
B         -3.20957       -0.07824        0.59916
B          1.13246        0.86740        0.69944
B         -4.40064       -2.35007       -0.54397
B          5.31953       -1.63223       -0.67386
B          5.30424       -0.00225       -0.43223
B          5.29061        1.82995       -0.65753
B          6.46074        0.88776       -1.27020
B          6.47371       -0.66489       -1.27753
B         -1.74191        0.85613        0.79974
B          1.16321       -0.30155        2.17289
B         -0.27164       -1.68000        0.84623
B         -5.91621       -1.65070       -0.74707
B         -6.12591        0.06114       -0.80300
B         -5.94262        1.79272       -0.80144
B          0.22297       -1.89578        0.05590
