45
isomer_0399.log	Energy: -113559.6435102
B         -2.74938       -1.47659       -0.77602
B         -2.71794       -3.03903        0.01337
B         -1.43225       -3.89262        0.16712
B          0.09251       -3.31430       -0.47486
B         -1.08107       -0.71967       -1.03814
B          1.67474       -0.86265       -0.84043
B          1.36799       -4.08910        0.36081
B         -4.17642       -0.62937       -0.91575
B          1.56936       -2.53446       -0.40265
B         -4.05400       -2.17852        0.29698
B         -0.06670       -4.55162        0.52569
B          2.85449       -3.37172        0.31134
B          3.02385       -1.83018       -0.18146
B          4.51736       -1.03601        0.13057
B          0.47793        1.69087       -0.85045
B          1.97716        2.41081       -0.45505
B          3.36973        1.53664       -0.35246
B          4.73895        0.59395       -0.20747
B          4.68905        2.21102        0.47637
B          3.36205        3.12653        0.14636
B          2.03740        4.03492        0.25534
B          0.57654        3.37223       -0.39911
B          0.67122        4.69224        0.48936
B         -2.24025        3.43952        0.15217
B         -0.77490        4.18070        0.24853
B         -2.41047        1.92392       -0.51500
B         -3.65952        2.76734        0.34826
B         -3.80492        1.06971       -0.10628
B         -0.89499        2.61005       -0.49476
B         -1.33996       -2.39757       -0.72271
B          3.27014       -0.17061       -0.66133
B         -0.97959        0.92237       -0.97043
B          4.27936       -2.67941        0.63889
B         -5.39014       -1.35810        0.16442
B         -5.31520        0.27614        0.11692
B         -4.89755        1.88837        0.85718
B         -4.64873        0.61596        1.71698
B         -4.93311       -0.91992        1.63364
B          1.79452        0.72398       -0.72239
B         -3.59117       -0.52592        0.74424
B          0.22214       -1.68036       -1.04665
B          5.53913       -1.87067        1.01593
B          5.83889       -0.35735        0.96424
B          5.66735        1.17974        0.98836
B         -2.45361        0.21874       -0.62966
