45
isomer_0040.log	Energy: -113259.5938285
B          2.35698        1.72910       -0.60800
B          2.26141        3.41487        0.03209
B          0.93199        4.22302        0.14177
B         -0.52195        3.49528       -0.48236
B          0.91262        1.04927       -1.01967
B         -1.69653        0.81482       -0.95618
B         -1.87052        4.11010        0.38599
B          3.77686        1.06652       -0.25667
B         -1.87448        2.51847       -0.42305
B          3.58567        2.61244        0.22881
B         -0.49631        4.75629        0.49710
B         -3.21330        3.17820        0.32291
B         -3.23435        1.65104       -0.25652
B         -4.50190        0.63848        0.20889
B         -0.02668       -0.49945       -0.84128
B         -1.54874       -2.49834       -0.48350
B         -3.01000       -1.79695       -0.27958
B         -4.46086       -1.01219        0.12329
B         -4.23169       -2.61450        0.66289
B         -2.76234       -3.30144        0.35798
B         -1.37889       -4.10656        0.34863
B         -0.06479       -3.30306       -0.54220
B          0.01167       -4.61980        0.43350
B          2.93798       -3.33744       -0.09667
B          1.38159       -3.96812        0.23939
B          2.69113       -1.54977       -0.56120
B          4.08405       -2.33477       -0.03195
B          3.94420       -0.64426       -0.25493
B          1.11983       -2.01842       -0.73390
B          0.96018        2.68822       -0.71462
B         -3.21183       -0.06770       -0.58228
B          1.70533       -0.19730       -0.79748
B         -4.58854        2.31962        0.59601
B          4.97092        1.95988        0.73037
B          5.01900        0.28186        0.43777
B          5.26234       -1.34664        0.62184
B          6.12669       -0.36247        1.42275
B          6.01840        1.15528        1.43649
B         -1.64232       -0.78130       -0.88213
B          1.85136       -2.52253        0.72543
B         -0.49534        1.87411       -1.06876
B         -5.62453        1.34007        1.11735
B         -5.71465       -0.22379        1.11730
B         -5.38169       -1.77187        1.18736
B         -0.35799       -1.99829       -1.50297
