45
isomer_0400.log	Energy: -113532.9920165
B         -2.22919        1.88424        0.15503
B         -2.03573        3.44057       -0.42200
B         -0.53322        4.11547       -0.47520
B          0.75899        3.26057        0.26571
B         -0.90300        0.85559        0.64515
B          1.87611        0.63492        0.87460
B          2.27372        3.94230       -0.16292
B         -3.78888        1.27429        0.19547
B          2.09387        2.29819        0.58479
B         -3.51522        2.80733       -0.52099
B          0.94173        4.61087       -0.53843
B          3.56662        3.02512        0.10969
B          3.49097        1.42688        0.57698
B          4.83930        0.40441        0.41369
B          0.20075       -1.75517        1.17834
B          1.45577       -2.48146        0.19583
B          2.90730       -1.80818        0.10212
B          4.42438       -1.11281       -0.20200
B          4.05692       -2.56755       -1.01061
B          2.54590       -3.20775       -0.80243
B          1.05661       -3.71114       -0.91354
B         -0.05795       -3.24828        0.39553
B         -0.50444       -3.94217       -1.02385
B         -2.85273       -3.09058        0.57366
B         -1.69670       -3.92561       -0.06291
B         -2.60187       -1.46500        0.44426
B         -4.17922       -2.10231        0.28147
B         -3.99117       -0.45838        0.47461
B         -1.35118       -2.50440        1.30473
B         -0.76285        2.55300        0.21667
B          3.33766       -0.29085        0.83666
B         -1.04089       -0.81309        0.52734
B          4.84704        2.12638       -0.15662
B         -4.93931        2.12058       -0.77521
B         -5.17126        0.48841       -0.28429
B         -5.39135       -1.22587       -0.22312
B         -6.44699       -0.22258       -0.90246
B         -6.24610        1.25860       -1.14781
B          1.69736       -0.97033        1.02984
B         -1.32556       -2.28198       -0.47686
B          0.59095        1.60800        0.77772
B          5.81693        1.07479       -0.68482
B          5.84630       -0.42655       -0.87428
B          5.38671       -1.89880       -1.20490
B         -2.44713        0.30030        0.70536
