45
isomer_0402.log	Energy: -113244.0591351
B          2.58360       -1.66214        0.89625
B          2.54380       -3.15183       -0.22492
B          1.26459       -3.91101       -0.63123
B         -0.22261       -3.01190       -0.23150
B          1.04736       -0.57754        0.67791
B         -1.50122       -0.73821        0.91497
B         -1.57117       -4.01828       -0.49602
B          3.92189       -0.77352        0.40929
B         -1.60852       -2.41098        0.48281
B          3.83415       -2.29651       -0.14394
B         -0.15792       -4.51970       -0.79861
B         -2.93150       -3.21522       -0.24365
B         -3.08432       -1.71654        0.40342
B         -4.39686       -0.81092       -0.12461
B         -0.30613        1.84295        0.92710
B         -1.77497        2.56932        0.50841
B         -3.14262        1.71826        0.35512
B         -4.56637        0.79898        0.11332
B         -4.46269        2.43448       -0.50337
B         -3.12814        3.27300       -0.20602
B         -1.73225        4.12277       -0.36829
B         -0.34914        3.46710        0.35510
B         -0.34751        4.69970       -0.63717
B          2.45232        3.35616       -0.27310
B          1.09357        4.13789       -0.40572
B          2.51462        1.71646        0.42434
B          3.78574        2.50288       -0.30115
B          3.90473        0.97259        0.32315
B          1.11771        2.60987        0.38169
B          1.18574       -2.16607       -0.12148
B         -3.17345        0.00842        0.70250
B          1.04216        1.01112        0.80667
B         -4.36027       -2.46272       -0.50431
B          5.18636       -1.50382       -0.48234
B          5.25617        0.11435       -0.05103
B          5.19344        1.73557       -0.58906
B          6.29320        0.87646       -1.13529
B          6.27019       -0.59818       -1.13283
B         -1.68589        0.86088        0.84299
B          1.29187       -1.96364        1.68426
B         -0.23031       -1.84458        1.46793
B         -5.53666       -1.60563       -0.94548
B         -5.73342       -0.07580       -0.94796
B         -5.53271        1.46720       -0.98216
B         -0.24654       -1.26164       -0.19602
