45
isomer_0404.log	Energy: -113486.2331598
B          2.37385        1.69887       -0.41283
B          2.36982        3.30634       -0.07899
B          0.99777        4.14025        0.10577
B         -0.44063        3.36314       -0.42751
B          0.90602        0.81134       -0.85303
B         -1.89162        0.82933       -0.81441
B         -1.79384        4.10257        0.35485
B          3.85863        0.78445       -0.09379
B         -1.89890        2.52878       -0.38984
B          3.72936        2.50265        0.10316
B         -0.36932        4.70828        0.43923
B         -3.19577        3.28210        0.34402
B         -3.25530        1.68181       -0.12502
B         -4.73076        0.86860        0.14039
B         -0.55539       -1.67681       -0.84108
B         -2.01480       -2.48518       -0.45979
B         -3.45782       -1.66959       -0.38976
B         -4.85391       -0.80677       -0.14865
B         -4.69748       -2.40332        0.52653
B         -3.35438       -3.26493        0.14488
B         -2.00885       -4.10746        0.21268
B         -0.56570       -3.37424       -0.45977
B         -0.60352       -4.71249        0.41632
B          3.62521       -2.57232        0.25075
B          0.80309       -4.14572        0.19212
B          2.30964       -1.73360       -0.30191
B          5.03962       -1.88158        0.47488
B          3.83845       -0.86942       -0.06092
B          0.85847       -2.52975       -0.48252
B          0.96493        2.50895       -0.69396
B         -3.41660        0.04717       -0.63971
B          0.89873       -0.80919       -0.77009
B         -4.58154        2.50334        0.68223
B          5.10423        1.77093        0.39772
B          5.34054       -0.06164        0.41300
B          6.41151       -1.36215        0.72658
B          7.07114       -0.07564        0.82440
B          6.45814        1.22262        0.67715
B         -1.91042       -0.78259       -0.74830
B          2.23413       -3.32306        0.12023
B         -0.48671        1.72531       -0.99481
B         -5.77820        1.63185        1.06668
B         -5.97638        0.08980        1.02193
B         -5.71554       -1.42250        1.07801
B          2.36011       -0.03853       -0.52682
