45
isomer_0405.log	Energy: -113675.8829275
B          2.51127        1.75954       -0.48998
B          2.42976        3.33359        0.04038
B          1.05003        4.15691        0.12329
B         -0.34858        3.38545       -0.51516
B          1.13144        0.84840       -1.04357
B         -1.78327        0.83019       -0.90696
B         -1.74511        4.14427        0.24738
B          3.95766        0.90844       -0.21603
B         -1.79993        2.53271       -0.48702
B          3.81163        2.53577        0.29266
B         -0.33849        4.74573        0.35290
B         -3.08931        3.28152        0.26689
B         -3.17248        1.68146       -0.25853
B         -4.53412        0.80082        0.23289
B         -0.34299       -0.00307       -1.09634
B         -1.72704       -2.55042       -0.43247
B         -3.13034       -1.73118       -0.22206
B         -4.54675       -0.89155        0.14841
B         -4.32949       -2.49813        0.76998
B         -3.01062       -3.33797        0.27907
B         -1.64454       -4.16818        0.25919
B         -0.27097       -3.40088       -0.53670
B         -0.22292       -4.74719        0.35410
B          2.51156       -3.30440        0.03607
B          1.15370       -4.14893        0.11043
B          2.56189       -1.73145       -0.52853
B          3.86860       -2.48658        0.27570
B          3.98372       -0.84684       -0.22442
B          1.18410       -2.57779       -0.78860
B          1.12112        2.58913       -0.76585
B         -3.29378       -0.01497       -0.60854
B          1.16933       -0.85014       -1.06817
B         -4.40538        2.44568        0.74978
B          5.06247        1.73623        0.86437
B          5.19604        0.04190        0.52266
B          5.10372       -1.65429        0.84550
B          6.10362       -0.71004        1.60637
B          6.08485        0.81087        1.61305
B         -1.71990       -0.84355       -0.79479
B          2.61015        0.01553       -0.74572
B         -0.36733        1.82543       -1.11576
B         -5.47125        1.51965        1.30245
B         -5.62098       -0.03196        1.30386
B         -5.37753       -1.56906        1.33677
B         -0.31353       -1.83066       -1.08891
