45
isomer_0406.log	Energy: -113450.9375481
B          2.61695       -1.45107        0.38189
B          2.85754       -3.11217        0.55825
B          1.68994       -3.95284       -0.00833
B          0.04374       -3.25957        0.48465
B          1.17616       -0.79277        0.62613
B         -1.72447       -0.94694        0.96767
B         -1.12296       -3.80959       -0.76072
B          3.98976       -0.50389        0.36879
B         -1.48336       -2.50113        0.24727
B          4.15811       -2.12281        0.14698
B          0.44962       -4.03146       -0.88622
B         -2.60793       -3.27367       -0.69114
B         -2.93379       -1.79584        0.04120
B         -4.42875       -1.06093       -0.18145
B         -0.46946        1.69612        0.80291
B         -1.99314        2.40126        0.53228
B         -3.39323        1.53593        0.48361
B         -4.76708        0.51958        0.27826
B         -4.69650        2.22857       -0.32232
B         -3.41873        3.13457       -0.04855
B         -2.06502        4.00072       -0.20357
B         -0.58515        3.32138        0.37836
B         -0.68506        4.62674       -0.49985
B          2.23474        3.46825       -0.18228
B          0.80945        4.16195       -0.30839
B          2.41063        1.78771        0.36023
B          3.67677        2.69450       -0.34492
B          3.88741        1.17692        0.31313
B          0.96301        2.53510        0.14756
B          1.44536       -2.50473        1.36933
B         -3.33043       -0.21532        0.77819
B          1.02759        0.86115        0.57821
B         -4.11210       -2.56136       -0.96516
B          5.32869       -1.30244       -0.47213
B          5.15275        0.40052       -0.43594
B          5.06715        2.07572       -0.70772
B          6.31410        1.19557       -1.18782
B          6.40993       -0.29956       -1.11948
B         -1.86438        0.75697        0.82079
B         -0.32281       -0.03068        0.92001
B         -0.13567       -1.77458        1.19167
B         -5.38489       -1.82328       -1.22952
B         -5.77864       -0.31596       -0.97852
B         -5.70100        1.19358       -0.85088
B          1.29514       -2.33019       -0.39250
