45
isomer_0407.log	Energy: -113460.9301023
B          2.36099        1.79295       -0.43678
B          2.27055        3.42168        0.13857
B          0.86096        4.18426        0.24251
B         -0.51567        3.41821       -0.48160
B          1.05899        0.98242       -1.02321
B         -1.84607        0.81848       -0.99806
B         -1.94021        4.08975        0.31054
B          3.75046        0.99221       -0.11603
B         -1.92475        2.50787       -0.58388
B          3.62799        2.62763        0.25967
B         -0.56674        4.71474        0.48360
B         -3.23377        3.15773        0.30376
B         -3.21522        1.59621       -0.23295
B         -4.53318        0.59612        0.25163
B         -0.17067       -1.67835       -0.88341
B         -1.56203       -2.53054       -0.42683
B         -3.04136       -1.82311       -0.24438
B         -4.53896       -1.06528       -0.04917
B         -4.24799       -2.65520        0.64126
B         -2.83567       -3.39268        0.24789
B         -1.43349       -4.15886        0.23440
B         -0.05889       -3.27514       -0.50474
B         -0.00631       -4.66300        0.34591
B          2.63362       -3.03172        0.27407
B          1.31552       -3.96011        0.20822
B          2.84808       -1.75730       -1.12063
B          3.86075       -2.21778        0.48614
B          3.96592       -0.77617       -0.44950
B          1.39654       -2.37916       -0.72371
B          0.98569        2.67780       -0.62168
B         -3.24817       -0.13380       -0.60956
B          1.37629       -0.61173       -0.60889
B         -4.53712        2.25614        0.70223
B          4.95120        1.82387        0.71767
B          5.13256        0.19571        0.20301
B          5.26851       -1.41964        0.63811
B          6.31090       -0.51115        1.19614
B          6.05438        0.94164        1.34491
B         -1.64118       -0.80350       -0.77797
B          2.48684       -1.14188        0.46115
B         -0.45741        1.87565       -1.14623
B         -5.64444        1.29224        1.13181
B         -5.71909       -0.26574        1.12493
B         -5.35406       -1.76561        1.15676
B         -0.24427        0.05412       -1.06567
