45
isomer_0409.log	Energy: -112676.3489371
B          2.59191        1.79289       -0.52619
B          2.53822        3.51029       -0.11611
B          1.14096        4.34389        0.09368
B         -0.36185        3.49548       -0.43910
B          1.12516        1.09072       -0.80149
B         -1.74658        0.84336       -0.89690
B         -1.79581        4.18929        0.29878
B          3.95783        0.94463       -0.41020
B         -1.75154        2.51577       -0.32902
B          3.90789        2.59256        0.06444
B         -0.35931        4.88146        0.41517
B         -3.10851        3.26638        0.29749
B         -3.11488        1.73571       -0.22721
B         -4.50129        0.85783        0.26805
B         -0.38232       -1.78887       -1.07593
B         -1.75383       -2.45861       -0.39072
B         -3.10873       -1.66855       -0.27808
B         -4.47789       -0.80404        0.23728
B         -4.45771       -2.51652        0.57306
B         -3.08558       -3.25045        0.25238
B         -1.75986       -4.15143        0.23600
B         -0.33744       -3.41581       -0.52605
B         -0.34003       -4.80371        0.35287
B          2.53207       -3.33872       -0.13969
B          1.15781       -4.20032        0.04218
B          2.60545       -1.65873       -0.61353
B          3.93273       -2.43927        0.06040
B          3.97533       -0.78648       -0.42690
B          1.16288       -2.68092       -0.80442
B          1.15444        2.78771       -0.68757
B         -3.18407        0.07270       -0.61854
B          1.09826       -1.07844       -0.95088
B         -4.47012        2.55140        0.58744
B          5.11991        1.83963        0.60628
B          5.16109        0.14982        0.37585
B          5.18875       -1.62209        0.63787
B          6.34658       -0.63353        1.32706
B          6.30810        0.94548        1.30774
B         -1.75488       -0.80754       -0.92999
B          1.52714       -2.05036        1.31693
B         -0.38792        1.84162       -0.97134
B         -5.81398        1.73669        0.88916
B         -5.96277        0.04820        0.90707
B         -5.80980       -1.64896        0.92334
B          1.29420       -0.23015        0.08934
