45
isomer_0041.log	Energy: -113454.8660064
B          2.08840        1.73617        0.02337
B          1.74327        3.30634        0.74110
B          0.33605        4.01456        0.55111
B         -0.81297        3.20993       -0.52165
B          0.88566        0.68683       -0.46501
B         -1.90679        0.58313       -1.31753
B         -2.39163        3.83825       -0.09670
B          3.63421        1.35143        0.06355
B         -2.16039        2.25312       -0.82511
B          3.19630        2.69319        0.88926
B         -1.11664        4.49942        0.40976
B         -3.64525        2.83359       -0.29954
B         -3.44940        1.24594       -0.86808
B         -4.57702        0.17998       -0.06239
B         -0.10358       -1.92792       -1.46126
B         -0.76971       -2.21945        0.38991
B         -2.53529       -1.91892        0.16607
B         -3.87469       -1.08892        0.74030
B         -3.56313       -2.67254        1.30228
B         -2.05513       -3.19993        1.09036
B         -0.70089       -3.90807        0.79709
B          0.20410       -3.35445       -0.62686
B          0.71372       -4.38211        0.52867
B          3.07743       -2.84080       -0.47587
B          1.91717       -3.80535       -0.17206
B          2.80226       -1.18751       -1.04484
B          4.24245       -1.82419       -0.36909
B          4.02036       -0.23063       -0.49821
B          1.48914       -2.20119       -0.59843
B          0.60154        2.39916       -0.08445
B         -3.08076       -0.42906       -0.56977
B          1.27670       -0.71866       -1.47130
B         -4.86832        1.88762        0.03621
B          4.72199        2.13826        1.12541
B          5.13030        0.73324        0.25700
B          5.47200       -0.91024        0.18266
B          6.37467        0.00030        1.03790
B          6.02989        1.39080        1.46748
B         -1.48809       -1.12869       -0.92268
B         -0.29881       -0.03954       -1.54866
B         -0.57627        1.63482       -0.98002
B         -5.75363        0.88267        0.76386
B         -5.52511       -0.60757        1.17194
B         -4.94647       -2.00825        1.52112
B          0.24236       -0.89476        0.02312
