45
isomer_0410.log	Energy: -113465.0438229
B         -2.61872       -1.68168       -0.70064
B         -2.57372       -3.12856        0.28367
B         -1.21990       -3.87484        0.44899
B          0.07856       -3.36588       -0.59042
B         -1.28325       -0.73766       -0.66342
B          1.64964       -0.79354       -0.71884
B          1.57905       -4.13582        0.19987
B         -3.96400       -0.78060       -0.33580
B          1.61490       -2.51022       -0.36426
B         -3.92540       -2.28561        0.26002
B          0.20370       -4.52724        0.57927
B          2.95472       -3.34393        0.13384
B          3.07649       -1.73820       -0.32832
B          4.54488       -0.91587       -0.10907
B          0.37441        1.85394       -1.05737
B          1.81070        2.54500       -0.51315
B          3.17262        1.70580       -0.24778
B          4.51487        0.73844        0.18989
B          4.45077        2.41734        0.68678
B          3.13271        3.26896        0.27856
B          1.78298        4.16304        0.31668
B          0.38387        3.39330       -0.38046
B          0.39727        4.75326        0.46838
B         -2.43515        3.41079        0.04175
B         -1.04045        4.16905        0.20861
B         -2.47796        1.71669       -0.47820
B         -3.78097        2.59662        0.13454
B         -3.88672        0.99824       -0.24182
B         -1.11081        2.63347       -0.60058
B         -1.38332       -2.72999       -1.15678
B          3.25845       -0.00270       -0.68119
B         -1.15131        0.91203       -0.90086
B          4.31723       -2.51346        0.55236
B         -5.27829       -1.49109        0.57499
B         -5.12938        0.14788        0.32166
B         -5.13402        1.80191        0.62429
B         -6.23147        0.93751        1.26382
B         -6.31540       -0.55040        1.23223
B          1.78216        0.86199       -0.92404
B         -1.13674       -2.08584        0.45249
B          0.15961       -1.69161       -0.74579
B          5.36101       -1.59541        1.11545
B          5.68131       -0.07888        1.12319
B          5.55011        1.46285        1.15684
B          0.24494        0.07093       -0.90936
