45
isomer_0412.log	Energy: -112244.5142191
B          2.60033       -1.60006        0.40313
B          2.60847       -3.23324        0.00281
B          1.21026       -4.07414       -0.25152
B         -0.25514       -3.26319        0.30760
B          1.13190       -0.72650        0.71858
B         -1.74245       -0.78556        0.80099
B         -1.63702       -4.05383       -0.39213
B          4.05030       -0.71070        0.34168
B         -1.64689       -2.38196        0.22065
B          4.00785       -2.39741       -0.13604
B         -0.20556       -4.70150       -0.53847
B         -3.07725       -3.22095       -0.39735
B         -3.12026       -1.60699        0.18908
B         -4.58757       -0.80262       -0.29884
B         -0.33367        1.78374        0.90035
B         -1.72257        2.47279        0.28155
B         -3.17108        1.65331        0.22997
B         -4.61280        0.81610       -0.27854
B         -4.46932        2.37912       -0.50404
B         -3.17862        3.28203       -0.31578
B         -1.76505        4.15899       -0.28911
B         -0.35892        3.39451        0.39111
B         -0.35452        4.85443       -0.41860
B          2.50411        3.46147        0.08679
B          1.08027        4.26449       -0.14693
B          2.54703        1.81930        0.44602
B          3.92880        2.67340       -0.07243
B          4.02399        0.97738        0.36285
B          1.10409        2.61910        0.61753
B          1.18309       -2.44849        0.55397
B         -3.22776       -0.08310        0.60479
B          1.10666        0.89277        0.73889
B         -4.39553       -2.35427       -0.56341
B          5.31982       -1.56588       -0.62860
B          5.29133        0.06198       -0.37424
B          5.26586        1.89577       -0.58518
B          6.44642        0.96686       -1.19813
B          6.47062       -0.58555       -1.21760
B         -1.76810        0.86014        0.82163
B          1.78962       -1.13027       -0.52780
B         -0.27990       -1.66569        0.85708
B         -5.91485       -1.66417       -0.77020
B         -6.13653        0.04650       -0.81392
B         -5.96574        1.77928       -0.79761
B          0.25627       -2.05738        1.63938
