45
isomer_0413.log	Energy: -113521.6259745
B         -2.52812        1.72757        0.57564
B         -2.57606        3.35924        0.19338
B         -1.22608        4.14405       -0.05504
B          0.26855        3.40378        0.43581
B         -1.02422        0.88218        0.83271
B          1.74919        0.88636        0.82525
B          1.58777        4.10920       -0.45478
B         -3.96273        0.83254        0.35224
B          1.69581        2.51738        0.21915
B         -3.93988        2.50131        0.03567
B          0.14958        4.69125       -0.48532
B          2.98671        3.30705       -0.46816
B          3.10817        1.74898        0.11491
B          4.55144        0.90499       -0.19005
B          0.44669       -1.64245        0.91682
B          1.87016       -2.42081        0.53133
B          3.31832       -1.62212        0.44603
B          4.71908       -0.73399        0.18013
B          4.59301       -2.37817       -0.40887
B          3.25477       -3.22165       -0.01970
B          1.91560       -4.05538       -0.13517
B          0.42815       -3.31893        0.48878
B          0.51890       -4.61797       -0.44083
B         -2.23462       -3.11781       -0.47998
B         -0.86471       -3.99663       -0.34607
B         -2.60332       -1.89980        1.00352
B         -3.58897       -2.36729       -0.62656
B         -3.86815       -0.98754        0.40729
B         -1.09586       -2.50665        0.67336
B         -1.16140        2.57979        0.80644
B          3.28782        0.09893        0.66182
B         -1.00654       -0.80645        0.70310
B          4.38670        2.50586       -0.79445
B         -5.14012        1.61146       -0.53767
B         -5.25097       -0.11001       -0.16139
B         -5.04113       -1.69929       -0.77495
B         -6.20922       -0.85650       -1.26952
B         -6.14837        0.63160       -1.27451
B          1.76253       -0.74047        0.78596
B         -2.12528       -1.38961       -0.59012
B          0.35016        1.75228        0.97220
B          5.59354        1.63854       -1.13175
B          5.84274        0.09817       -0.99389
B          5.65357       -1.42249       -0.93452
B         -2.44320       -0.02050        0.41175
