45
isomer_0414.log	Energy: -112793.5511547
B          2.62127       -1.58576        0.42594
B          2.62605       -3.23277        0.04360
B          1.22802       -4.07744       -0.20749
B         -0.24277       -3.26185        0.34232
B          1.17178       -0.69488        0.73015
B         -1.72702       -0.77300        0.81460
B         -1.62409       -4.05804       -0.34438
B          4.05570       -0.70765        0.34836
B         -1.64054       -2.38279        0.24739
B          4.01138       -2.39464       -0.10225
B         -0.18953       -4.69853       -0.48076
B         -3.05998       -3.22627       -0.35682
B         -3.10377       -1.60407        0.20904
B         -4.56787       -0.79840       -0.28343
B         -0.30571        1.79266        0.88242
B         -1.69813        2.47898        0.25668
B         -3.14513        1.66369        0.21614
B         -4.58733        0.82403       -0.27970
B         -4.44594        2.38830       -0.52949
B         -3.14320        3.28317       -0.34863
B         -1.73077        4.15353       -0.33415
B         -0.32854        3.39711        0.35243
B         -0.32056        4.83174       -0.47084
B          2.52623        3.44864        0.04144
B          1.10707        4.24974       -0.19682
B          2.56943        1.81425        0.42523
B          3.94095        2.65118       -0.10871
B          4.03259        0.97789        0.34703
B          1.13414        2.62006        0.58672
B          1.20984       -2.43716        0.59159
B         -3.20719       -0.06572        0.60967
B          1.13623        0.90115        0.73244
B         -4.39036       -2.36027       -0.53609
B          5.31837       -1.57201       -0.60822
B          5.29067        0.05579       -0.37684
B          5.26891        1.86658       -0.61084
B          6.43298        0.94006       -1.21190
B          6.46111       -0.60567       -1.21227
B         -1.74681        0.87397        0.81635
B          0.93028       -2.31669       -0.70631
B         -0.27468       -1.65283        0.88139
B         -5.88393       -1.64866       -0.74143
B         -6.09364        0.05121       -0.80143
B         -5.92174        1.75609       -0.80514
B          0.30623       -0.86477        1.75302
