45
isomer_0416.log	Energy: -113675.8866631
B          2.50937        1.75942       -0.48850
B          2.42815        3.33462        0.03964
B          1.04829        4.15713        0.12309
B         -0.35040        3.38481       -0.51441
B          1.12998        0.84854       -1.04194
B         -1.78608        0.83061       -0.91108
B         -1.74742        4.14448        0.24619
B          3.95653        0.90998       -0.21596
B         -1.80159        2.53276       -0.48811
B          3.81031        2.53694        0.29202
B         -0.34085        4.74582        0.35211
B         -3.09145        3.28094        0.26608
B         -3.17317        1.68077       -0.26017
B         -4.53210        0.79837        0.23726
B         -0.31322       -1.83063       -1.08786
B         -1.72490       -2.55122       -0.43134
B         -3.12907       -1.73287       -0.22097
B         -4.54698       -0.89352        0.14553
B         -4.32669       -2.49917        0.77058
B         -3.00900       -3.34007        0.27856
B         -1.64267       -4.16969        0.25813
B         -0.26954       -3.40274       -0.53881
B         -0.22064       -4.74791        0.35319
B          2.51292       -3.30400        0.03715
B          1.15592       -4.14917        0.10915
B          2.60959        0.01568       -0.74547
B          3.86928       -2.48555        0.27634
B          3.98393       -0.84596       -0.22443
B          1.18549       -2.57779       -0.78872
B          1.11963        2.58978       -0.76512
B         -3.29366       -0.01581       -0.60928
B          1.16979       -0.85095       -1.06847
B         -4.40642        2.44477        0.74946
B          5.06110        1.73830        0.86408
B          5.19510        0.04399        0.52319
B          5.10406       -1.65227        0.84572
B          6.10471       -0.70721        1.60569
B          6.08482        0.81357        1.61241
B         -1.71807       -0.84323       -0.78860
B          2.56285       -1.73070       -0.53003
B         -0.36882        1.82524       -1.11681
B         -5.47258        1.51893        1.30191
B         -5.61975       -0.03293        1.30481
B         -5.37378       -1.56925        1.33791
B         -0.34299       -0.00283       -1.09413
