45
isomer_0419.log	Energy: -113441.8478619
B          2.46011       -1.74596        0.39281
B          2.62802       -3.19340       -0.81183
B          1.34651       -4.09612       -0.82676
B          0.05372       -3.24256        0.39105
B          1.27684       -0.64109        1.02820
B         -1.69133       -0.77921        1.01353
B         -1.41194       -3.97220       -0.23999
B          3.68943       -0.66466        0.00854
B         -1.57181       -2.48158        0.57560
B          3.71041       -2.13984       -0.66923
B         -0.08738       -4.49361       -0.67181
B         -2.85564       -3.25821       -0.15535
B         -3.03957       -1.72688        0.32989
B         -4.41901       -0.88318       -0.20817
B         -0.38717        1.88156        0.96853
B         -1.82792        2.55647        0.44328
B         -3.20238        1.69639        0.15702
B         -4.63949        0.75482        0.04252
B         -4.47884        2.38462       -0.70396
B         -3.16718        3.26067       -0.36988
B         -1.79878        4.13342       -0.44534
B         -0.41512        3.42033        0.32009
B         -0.41388        4.74278       -0.58160
B          2.40532        3.43438       -0.08972
B          1.01700        4.20132       -0.28223
B          2.47186        1.80386        0.50231
B          3.82604        2.67211       -0.11484
B          3.75799        1.00268        0.04175
B          1.10942        2.67614        0.57920
B          1.79772       -3.42542        0.57972
B         -3.25812       -0.00903        0.65751
B          1.15230        0.95295        1.04981
B         -4.28743       -2.54199       -0.58344
B          5.14391       -1.33678       -0.72049
B          5.18754        0.20231       -0.08664
B          5.15074        1.90999       -0.48091
B          6.24258        0.98426       -1.07831
B          6.34923       -0.49975       -1.05423
B         -1.77064        0.86978        0.72323
B          1.15461       -2.29477        1.42034
B         -0.28854       -1.65466        1.30857
B         -5.46162       -1.72777       -1.07375
B         -5.69764       -0.18243       -1.10459
B         -5.50890        1.35602       -1.15507
B         -0.25097        0.09423        0.97463
