45
isomer_0042.log	Energy: -111261.0636716
B         -2.57903       -1.64726       -0.47826
B         -2.58063       -3.28790       -0.10961
B         -1.17908       -4.12779        0.12925
B          0.28324       -3.30015       -0.41321
B         -1.11406       -0.76173       -0.77589
B          1.76055       -0.80734       -0.85771
B          1.66802       -4.09847        0.27192
B         -4.03269       -0.76524       -0.40049
B          1.67129       -2.41504       -0.30841
B         -3.98352       -2.46069        0.04454
B          0.23916       -4.75475        0.40486
B          3.10478       -3.25993        0.29411
B          3.14143       -1.63476       -0.26097
B          4.60515       -0.83394        0.24329
B          0.34123        1.75758       -0.90821
B          1.72694        2.44025       -0.27537
B          3.17880        1.62590       -0.23878
B          4.62371        0.78496        0.25430
B          4.47365        2.34273        0.50990
B          3.17933        3.24378        0.33837
B          1.76216        4.11526        0.32782
B          0.35956        3.35829       -0.36790
B          0.34870        4.80225        0.46989
B         -2.50389        3.40755       -0.06405
B         -1.08349        4.21176        0.18600
B         -2.53983        1.77247       -0.45499
B         -3.92539        2.61069        0.07905
B         -4.01334        0.92302       -0.38900
B         -1.10012        2.58139       -0.61015
B         -1.15822       -2.48678       -0.64463
B          3.24285       -0.10268       -0.64707
B         -1.09550        0.85772       -0.76487
B          4.41939       -2.39119        0.47769
B         -5.29917       -1.64425        0.55231
B         -5.27728       -0.01167        0.32949
B         -5.25949        1.81778        0.57587
B         -6.43651        0.87234        1.17004
B         -6.45431       -0.68025        1.15947
B          1.77942        0.83854       -0.84651
B         -1.24571       -1.24619        1.59152
B          0.30168       -1.69224       -0.93168
B          5.93574       -1.69897        0.69869
B          6.15033        0.01144        0.77561
B          5.97238        1.74349        0.79271
B         -1.40825       -0.00999       -0.92893
