45
isomer_0420.log	Energy: -113397.3218827
B          2.64169        1.62733       -0.63878
B          2.58898        3.29546       -0.15894
B          1.24497        4.12618        0.06210
B         -0.24069        3.39789       -0.47001
B          1.21151        0.83137       -1.04044
B         -1.73184        0.89916       -0.91580
B         -1.55946        4.18661        0.33374
B          4.05365        0.82179       -0.40933
B         -1.68426        2.57697       -0.47671
B          3.92742        2.42102        0.09524
B         -0.14683        4.74483        0.38682
B         -2.94346        3.32323        0.38197
B         -3.11944        1.80665       -0.21500
B         -4.51430        0.91449        0.23599
B         -0.22763       -1.71262       -0.89299
B         -1.75622       -2.44462       -0.58350
B         -3.16245       -1.61856       -0.35025
B         -4.50471       -0.73978        0.18911
B         -4.42640       -2.38506        0.61604
B         -3.07865       -3.21026        0.06497
B         -1.72729       -4.04084        0.07863
B         -0.25638       -3.39436       -0.70349
B         -0.29778       -4.53435        0.43845
B          2.30436       -3.03895        0.27709
B          1.13495       -4.08435        0.38188
B          2.64489       -1.65610       -0.69580
B          3.74505       -2.24280        0.47443
B          4.05676       -0.86490       -0.36433
B          1.31827       -2.51308       -1.19115
B          1.26197        2.56546       -0.71066
B         -3.28131        0.09071       -0.56528
B          1.21768       -0.75541       -1.05878
B         -4.29893        2.52361        0.81793
B          5.11264        1.67866        0.76931
B          5.23632        0.01381        0.45919
B          5.06681       -1.62155        0.94358
B          6.17728       -0.69920        1.58117
B          6.16114        0.77745        1.53835
B         -1.71538       -0.71336       -0.92605
B          0.66354       -2.45625        0.44265
B         -0.29769        1.85173       -1.05911
B         -5.43021        1.61016        1.33531
B         -5.65038        0.07531        1.28903
B         -5.47576       -1.49713        1.22146
B         -0.24242        0.06365       -0.98800
