45
isomer_0422.log	Energy: -113468.0836695
B          2.32053        1.94360       -0.62002
B          2.17326        3.53789        0.05517
B          0.78271        4.26954        0.23811
B         -0.60964        3.46422       -0.41812
B          1.03633        1.15206       -1.27731
B         -1.89396        0.86036       -1.03486
B         -1.99342        4.04383        0.47059
B          3.68906        1.12589       -0.18282
B         -1.97263        2.51329       -0.44300
B          3.52852        2.72543        0.25501
B         -0.63656        4.73445        0.58410
B         -3.26357        3.05772        0.49519
B         -3.23913        1.52624       -0.13461
B         -4.46977        0.44547        0.38771
B         -0.21853       -1.61836       -1.30207
B         -1.37105       -2.48667       -0.50923
B         -2.90582       -1.85305       -0.27532
B         -4.43990       -1.18485       -0.00916
B         -3.99029       -2.80758        0.62763
B         -2.58601       -3.41524        0.15282
B         -1.08397       -4.01196        0.19359
B          0.34203       -3.11941       -0.48772
B          0.26324       -4.47509        0.47491
B          3.05532       -3.43238        0.83672
B          1.71741       -4.09672        0.68753
B          2.61677       -1.22914       -0.99590
B          3.62440       -2.09819        0.31935
B          3.88407       -0.59410       -0.32947
B          2.16025       -2.84248       -0.34012
B          0.92282        2.81188       -0.77553
B         -3.25274       -0.17449       -0.64094
B          1.20661       -0.41304       -1.44960
B         -4.49117        2.07855        0.94120
B          4.78018        1.96095        0.89049
B          5.03169        0.36166        0.41949
B          4.95029       -1.28694        0.82803
B          5.90668       -0.41455        1.61741
B          5.77665        1.06538        1.68233
B         -1.62811       -0.81811       -0.94199
B          1.32074       -2.06654       -1.47400
B         -0.55169        1.98961       -1.19236
B         -5.51018        1.04989        1.42263
B         -5.52947       -0.50179        1.32130
B         -5.11182       -1.98495        1.22283
B         -0.34012        0.20772       -1.28995
