45
isomer_0423.log	Energy: -112727.4639916
B         -2.72332       -1.55049       -0.38640
B         -2.71773       -3.26961        0.01909
B         -1.34010       -4.27743        0.33455
B          0.39943       -3.33778       -0.27501
B         -1.33993       -0.64164       -0.69797
B          1.77709       -0.72076       -0.81986
B          1.76732       -4.08820        0.43471
B         -4.08856       -0.69054       -0.31702
B          1.76330       -2.43329       -0.18518
B         -4.05002       -2.36423        0.13982
B          0.22220       -4.82009        0.57637
B          3.15568       -3.21411        0.43669
B          3.17827       -1.59146       -0.16915
B          4.59692       -0.70617        0.31094
B          0.25007        1.83096       -0.91317
B          1.64858        2.52679       -0.28415
B          3.11484        1.73690       -0.22234
B          4.57233        0.92244        0.28706
B          4.40581        2.50063        0.53383
B          3.05831        3.34115        0.32321
B          1.63338        4.18497        0.30336
B          0.25460        3.43210       -0.37141
B          0.24112        4.81499        0.43809
B         -2.57666        3.44190       -0.02520
B         -1.17038        4.24462        0.18825
B         -2.62077        1.81438       -0.42507
B         -3.96804        2.62333        0.13825
B         -4.06240        0.99191       -0.32253
B         -1.20991        2.63866       -0.59213
B         -1.34329       -2.43185       -0.56874
B          3.23320        0.01078       -0.59359
B         -1.19412        0.95397       -0.76610
B          4.50991       -2.29261        0.61436
B         -5.32337       -1.55317        0.65354
B         -5.28975        0.07943        0.41440
B         -5.25708        1.84893        0.64048
B         -6.38575        0.93634        1.24086
B         -6.43495       -0.58186        1.25971
B          1.74034        0.92588       -0.83185
B         -0.45557       -3.55933       -0.67691
B          0.32746       -1.72134       -0.85789
B          5.87951       -1.46918        0.79110
B          6.02748        0.19132        0.81461
B          5.82944        1.80080        0.79790
B         -0.03492       -0.47802       -1.38950
