45
isomer_0424.log	Energy: -112592.8557670
B         -2.60471        1.71245        0.40996
B         -2.59008        3.35204        0.03698
B         -1.18003        4.17907       -0.19666
B          0.27214        3.34021        0.35573
B         -1.14910        0.81501        0.71768
B          1.72533        0.83585        0.81461
B          1.66741        4.12463       -0.32416
B         -4.06557        0.84289        0.32681
B          1.65297        2.44279        0.26062
B         -3.99928        2.53665       -0.12242
B          0.24505        4.79294       -0.46639
B          3.09692        3.27357       -0.33652
B          3.11649        1.64963        0.22303
B          4.57583        0.83477       -0.27136
B          0.28348       -1.71649        0.86435
B          1.66652       -2.41287        0.24066
B          3.12559       -1.61127        0.20963
B          4.58034       -0.78425       -0.27801
B          4.41808       -2.34133       -0.53029
B          3.11507       -3.23064       -0.36325
B          1.69034       -4.08974       -0.35791
B          0.29072       -3.31874        0.32836
B          0.27172       -4.76479       -0.50567
B         -2.57139       -3.34392        0.00946
B         -1.15676       -4.16112       -0.23093
B         -2.59517       -1.70755        0.39590
B         -3.98513       -2.53512       -0.14327
B         -4.06086       -0.84551        0.31987
B         -1.16340       -2.52853        0.56082
B         -1.17754        2.54002        0.58165
B          3.20252        0.11778        0.61370
B         -1.14458       -0.80456        0.71102
B          4.40487        2.39295       -0.51084
B         -5.31930        1.73031       -0.63500
B         -5.31280        0.09821       -0.40777
B         -5.30964       -1.73198       -0.64923
B         -6.47523       -0.77794       -1.25212
B         -6.47957        0.77477       -1.24574
B          1.72992       -0.81016        0.80785
B         -0.98290       -0.61961        2.01414
B          0.27385        1.73360        0.87853
B          5.91628        1.68698       -0.72197
B          6.11637       -0.02543       -0.79325
B          5.92345       -1.75591       -0.80673
B         -0.03823        0.11033       -0.53185
