45
isomer_0426.log	Energy: -113363.1034984
B          2.53149       -1.76698        0.24784
B          2.48039       -3.36649       -0.25625
B          1.04574       -4.14104       -0.27527
B         -0.31003       -3.40445        0.51277
B          1.22572       -0.88295        0.69646
B         -1.61699       -0.77108        0.81322
B         -1.77494       -4.07329       -0.21937
B          3.87406       -0.93378       -0.02618
B         -1.76442       -2.49609        0.52488
B          3.81434       -2.53233       -0.47714
B         -0.37770       -4.64762       -0.48554
B         -3.11811       -3.26087       -0.07716
B         -3.14964       -1.62503        0.38261
B         -4.51539       -0.74772       -0.02676
B         -0.25003        1.77068        0.92164
B         -1.63451        2.56778        0.25600
B         -3.03037        1.76188        0.04703
B         -4.46447        0.93390       -0.16767
B         -4.25676        2.55786       -0.86674
B         -2.91109        3.38287       -0.44126
B         -1.51889        4.18307       -0.39165
B         -0.16998        3.37186        0.37372
B         -0.08586        4.75162       -0.39112
B          2.59795        3.25611        0.14990
B          1.26949        4.12771       -0.04457
B          2.57432        1.61406        0.62687
B          3.92136        2.40797       -0.01718
B          3.91404        0.77943        0.18554
B          1.23881        2.53197        0.82041
B          1.15878       -2.61981        0.50327
B         -3.19583        0.08825        0.61408
B          1.17662        0.76910        1.10148
B         -4.45698       -2.41717       -0.51949
B          5.17426       -1.68787       -0.88553
B          5.22174       -0.08570       -0.31644
B          5.26418        1.60657       -0.54041
B          6.31858        0.74899       -1.23798
B          6.27836       -0.75755       -1.39191
B         -1.62932        0.87098        0.55180
B          0.00876       -0.26406        1.94389
B         -0.26510       -1.79659        1.15529
B         -5.49038       -1.47790       -1.08380
B         -5.60175        0.06871       -1.17263
B         -5.33445        1.59377       -1.31738
B         -0.16600        0.01124        0.20073
