45
isomer_0427.log	Energy: -113389.6446307
B          2.46335       -1.52526        0.27302
B          2.52883       -3.17487        0.07360
B          1.20435       -3.99359       -0.01134
B         -0.20117       -3.30457        0.62357
B          1.11966       -0.77354        0.76722
B         -1.71596       -0.77198        0.96058
B         -1.56648       -4.08363       -0.29576
B          3.91107       -0.73613        0.22341
B         -1.67940       -2.45700        0.44783
B          3.84170       -2.29705       -0.27693
B         -0.17220       -4.61601       -0.37682
B         -2.88683       -3.24966       -0.37270
B         -3.07754       -1.71362        0.27841
B         -4.51185       -0.85496       -0.09144
B         -0.29917        1.87998        1.10929
B         -1.74478        2.50849        0.51620
B         -3.10421        1.72954        0.28585
B         -4.45559        0.79779       -0.22731
B         -4.35722        2.45784       -0.70409
B         -3.01075        3.27302       -0.29388
B         -1.67263        4.12515       -0.29850
B         -0.33022        3.41234        0.57533
B         -0.28442        4.71678       -0.40412
B          2.45883        3.35514        0.00460
B          1.11034        4.16473       -0.11830
B          2.51039        1.71335        0.47451
B          3.82969        2.52670       -0.09320
B          3.93282        0.94273        0.28700
B          1.15847        2.57174        0.68326
B          1.35769       -2.65465        1.27431
B         -3.28403        0.00392        0.63217
B          1.06539        0.85942        0.84744
B         -4.25606       -2.42292       -0.79938
B          5.10130       -1.52297       -0.82060
B          5.12187        0.12520       -0.52988
B          5.12608        1.77785       -0.70258
B          6.17915        0.90642       -1.44974
B          6.18371       -0.61333       -1.49963
B         -1.75866        0.86434        1.02819
B          0.99836       -2.26116       -0.32815
B         -0.23635       -1.75133        0.97432
B         -5.28297       -1.51305       -1.37784
B         -5.56947        0.00509       -1.32317
B         -5.43229        1.54552       -1.26117
B         -0.31279        0.02818        1.31641
