45
isomer_0043.log	Energy: -113636.9514431
B         -1.16322       -1.21194        0.44355
B         -1.35360       -2.92814        1.05383
B          0.11264       -3.69576        0.98260
B          1.15975       -3.26072       -0.31386
B         -0.90668       -1.51013       -1.46415
B          1.79475       -0.66327       -0.85205
B          2.80409       -3.49959        0.28014
B         -3.01698       -1.15003       -0.50621
B          2.38152       -2.25520       -0.93132
B         -2.50282       -1.84061        1.27823
B          1.57408       -4.08269        0.98935
B          3.97403       -2.58173       -0.23544
B          3.43581       -1.05521       -0.47331
B          4.50318        0.22541       -0.09329
B         -0.34991        1.30311       -0.70471
B          0.75722        2.47773       -0.06515
B          2.37401        2.16853       -0.07601
B          3.99289        1.85893       -0.08689
B          3.39317        3.29815        0.68337
B          1.80457        3.70209        0.35902
B          0.26532        4.10210        0.25638
B         -0.87365        2.87007       -0.31408
B         -1.27505        4.34235        0.14104
B         -3.43994        2.16151       -0.19879
B         -2.43335        3.40299       -0.14307
B         -3.22404        0.61703       -0.91619
B         -4.58712        1.07145        0.22743
B         -4.48421       -0.40475       -1.18911
B         -1.98325        1.68120       -0.86308
B         -0.50579       -2.84192       -0.40403
B          2.94634        0.61817       -0.66329
B         -1.55579       -0.04410       -0.94525
B          5.00190       -1.41997        0.19008
B         -3.65812       -0.98242        1.87151
B         -4.36529       -0.70756        0.43701
B         -5.81044       -0.05143       -0.51425
B         -5.94579        0.36836        0.91142
B         -4.79611        0.04785        1.85246
B          1.21443        0.87564       -0.45650
B         -2.07914       -2.47460       -0.51018
B          0.75406       -1.90599       -1.37337
B          5.77971       -0.19688        0.74695
B          5.44330        1.31415        0.86950
B          4.73010        2.69754        1.06927
B          0.11342       -0.43968       -0.34955
