45
isomer_0430.log	Energy: -112016.0879247
B          2.48514        1.88841       -0.50170
B          2.43046        3.51465       -0.07749
B          1.00187        4.29254        0.20681
B         -0.43569        3.42895       -0.34569
B          1.05038        0.95868       -0.81146
B         -1.82477        0.89845       -0.85676
B         -1.83998        4.15099        0.38297
B          3.97163        1.05979       -0.47164
B         -1.78821        2.48905       -0.25421
B          3.86518        2.73629        0.03138
B         -0.43496        4.85592        0.52079
B         -3.24402        3.25852        0.39408
B         -3.22743        1.65266       -0.21549
B         -4.65335        0.78069        0.27898
B         -0.31150       -1.60792       -1.01173
B         -1.66216       -2.36326       -0.38569
B         -3.14278       -1.60599       -0.30379
B         -4.61132       -0.83721        0.23514
B         -4.39981       -2.39590        0.43575
B         -3.07518       -3.24118        0.21795
B         -1.62675       -4.05769        0.16054
B         -0.26283       -3.22540       -0.52601
B         -0.18686       -4.69520        0.26198
B          2.60427       -3.17668       -0.25881
B          1.21837       -4.04188       -0.01903
B          2.57392       -1.52922       -0.59431
B          3.99684       -2.33197       -0.10596
B          4.01546       -0.62744       -0.51736
B          1.16346       -2.38625       -0.75939
B          1.03188        2.67879       -0.62214
B         -3.27677        0.13166       -0.65223
B          1.09243       -0.65977       -0.85532
B         -4.52271        2.33511        0.56395
B          5.21708        1.95353        0.49505
B          5.25315        0.32968        0.21711
B          5.30696       -1.50637        0.40130
B          6.45575       -0.53762        1.01295
B          6.41544        1.01401        1.05499
B         -1.78204       -0.74642       -0.90133
B          2.73579       -2.20025        2.44424
B         -0.40106        1.83978       -0.91830
B         -6.00906        1.57911        0.77967
B         -6.15862       -0.13980        0.80096
B         -5.91594       -1.86350        0.75697
B          0.90835       -2.05034        0.31229
