45
isomer_0431.log	Energy: -112958.4351336
B         -2.47174       -1.81931       -0.54956
B         -2.46451       -3.52627       -0.09720
B         -1.06452       -4.33012        0.09433
B          0.36789       -3.54067       -0.49010
B         -1.04213       -1.20276       -0.88494
B          1.68317       -0.81825       -0.88398
B          1.80492       -4.19661        0.30613
B         -3.84213       -0.90425       -0.32069
B          1.72197       -2.52091       -0.32792
B         -3.76541       -2.52396        0.08486
B          0.43318       -4.84966        0.42147
B          3.07460       -3.24410        0.33270
B          3.05129       -1.65601       -0.21588
B          4.39121       -0.69734        0.28628
B          0.29948        1.92716       -0.97303
B          1.60148        2.59149       -0.32561
B          2.98876        1.78886       -0.23901
B          4.33872        0.94051        0.26750
B          4.29721        2.60598        0.59361
B          2.93875        3.39373        0.30545
B          1.60622        4.28570        0.28029
B          0.20535        3.59478       -0.43707
B          0.22946        4.93564        0.39610
B         -2.66752        3.63381       -0.03099
B         -1.26765        4.43577        0.11757
B         -2.65402        1.93159       -0.41501
B         -3.96506        2.62532        0.14886
B         -3.92366        0.98320       -0.27788
B         -1.28155        2.92339       -0.62882
B         -1.14547       -2.88985       -0.85011
B          3.10951        0.03355       -0.59974
B         -1.23544        1.33510       -0.67776
B          4.42362       -2.35270        0.63200
B         -5.00231       -1.68684        0.65880
B         -5.04591       -0.02917        0.41308
B         -5.15815        1.65325        0.67112
B         -6.17187        0.69313        1.33996
B         -6.10349       -0.81472        1.35439
B          1.64574        0.92375       -0.88790
B         -0.78804       -2.33724        0.64839
B          0.37969       -1.91626       -1.01852
B          5.62250       -1.44160        0.89861
B          5.74474        0.17584        0.90379
B          5.55629        1.72049        0.89992
B         -0.45519        0.16656       -0.92348
