45
isomer_0432.log	Energy: -112808.8696535
B          2.61573       -1.72791        0.41967
B          2.57032       -3.36597        0.03634
B          1.18118       -4.18677       -0.18999
B         -0.25318       -3.35731        0.36620
B          1.18537       -0.86841        0.74083
B         -1.71065       -0.77575        0.83975
B         -1.65441       -4.11975       -0.32115
B          4.04317       -0.84255        0.33278
B         -1.64062       -2.44130        0.26807
B          3.96354       -2.51247       -0.12057
B         -0.25146       -4.75692       -0.45168
B         -3.07173       -3.25280       -0.33592
B         -3.09508       -1.62339        0.22479
B         -4.53908       -0.77682       -0.27147
B         -0.26438        1.78690        0.90282
B         -1.64013        2.47117        0.25313
B         -3.09104        1.67048        0.21386
B         -4.52853        0.84113       -0.27571
B         -4.38999        2.41129       -0.55268
B         -3.04597        3.27895       -0.36559
B         -1.62986        4.12977       -0.35580
B         -0.24186        3.38069        0.34428
B         -0.22161        4.76718       -0.48412
B          2.60461        3.38353        0.02721
B          1.20644        4.19869       -0.21003
B          2.66065        1.74583        0.40724
B          4.01513        2.52766       -0.13795
B          4.06192        0.88061        0.32558
B          1.23204        2.60173        0.57334
B          1.21068       -2.57457        0.59018
B         -3.18394       -0.04967        0.61868
B          1.24633        0.87167        0.71284
B         -4.40682       -2.37484       -0.52919
B          5.26039       -1.71452       -0.63420
B          5.27082       -0.06960       -0.40181
B          5.28283        1.71813       -0.63673
B          6.39607        0.75837       -1.23701
B          6.40709       -0.75032       -1.24629
B         -1.70985        0.87232        0.82972
B          0.70458        0.41066        1.53144
B         -0.21304       -1.74380        0.91068
B         -5.82006       -1.57461       -0.72434
B         -5.98861        0.07766       -0.78843
B         -5.79788        1.71774       -0.80139
B         -0.72910       -1.04212       -0.39735
