45
isomer_0435.log	Energy: -113385.7505743
B         -2.36004        1.84752        0.77475
B         -2.30076        3.58793        0.19243
B         -0.93149        4.27646        0.01896
B          0.46793        3.44534        0.53750
B         -1.10738        1.02810        1.22085
B          1.76081        0.88653        0.67704
B          1.85472        4.13329       -0.35419
B         -3.60878        1.11322        0.12170
B          1.86728        2.58626        0.37005
B         -3.57574        2.78790       -0.06844
B          0.48507        4.75645       -0.36196
B          3.17716        3.27224       -0.34815
B          3.14994        1.65839        0.06041
B          4.50529        0.66200       -0.21862
B          0.22944       -1.56137        1.10294
B          1.45273       -2.47839        0.70854
B          2.93545       -1.79721        0.35178
B          4.31538       -0.98938       -0.30511
B          4.06308       -2.67184       -0.64166
B          2.67189       -3.31980       -0.13021
B          1.31563       -4.07740        0.06024
B         -0.15872       -3.19644        0.57671
B         -0.05574       -4.60732       -0.24938
B         -2.72452       -3.38218       -0.50416
B         -1.40001       -4.19986       -0.54421
B         -2.40360       -1.75186        0.31581
B         -3.75841       -2.22737       -0.60959
B         -3.60108       -0.69095       -0.14114
B         -1.94439       -3.48336        0.76859
B         -1.00065        2.70138        0.92121
B          3.18908       -0.08607        0.56216
B         -1.34679       -0.58257        1.02631
B          4.40830        2.30136       -0.84892
B         -4.83541        1.99408       -0.72452
B         -4.80811        0.32768       -0.59147
B         -5.04448       -1.27178       -1.03017
B         -6.02702       -0.31985       -1.56565
B         -5.98266        1.16657       -1.37891
B          1.65747       -0.76311        0.97499
B         -1.18927       -2.25202        1.37397
B          0.47567        1.89554        1.06814
B          5.32972        1.26100       -1.41825
B          5.45746       -0.30900       -1.37355
B          5.13176       -1.84273       -1.35663
B          0.26379        0.17262        0.97979
