45
isomer_0436.log	Energy: -113675.8300379
B         -2.54473        1.74198        0.51384
B         -2.48226        3.31145       -0.04211
B         -1.11624        4.15068       -0.12093
B          0.29666        3.39668        0.52609
B         -1.15649        0.84850        1.06475
B          1.73805        0.83921        0.84042
B          1.67848        4.15775       -0.26039
B         -3.97449        0.86712        0.22086
B          1.75361        2.54437        0.45508
B         -3.85025        2.50324       -0.28124
B          0.26322        4.74647       -0.35983
B          3.03680        3.31515       -0.27636
B          3.14583        1.71335        0.23842
B          4.54427        0.86073       -0.17613
B          0.34779       -1.83051        1.10833
B          1.77664       -2.53920        0.47130
B          3.15888       -1.69745        0.24943
B          4.53969       -0.83216       -0.20233
B          4.38070       -2.46178       -0.75831
B          3.06149       -3.29771       -0.27345
B          1.71035       -4.15070       -0.25597
B          0.32104       -3.39149        0.52004
B          0.29958       -4.74599       -0.35869
B         -2.45680       -3.32099       -0.04281
B         -1.08370       -4.15334       -0.12469
B         -2.52877       -1.75091        0.50215
B         -3.83209       -2.51855       -0.28682
B         -3.96626       -0.88654        0.21811
B         -1.14229       -2.58534        0.77443
B         -1.16220        2.58190        0.78244
B          3.29553        0.00492        0.60874
B         -1.14463       -0.84788        1.05685
B          4.35658        2.47801       -0.76478
B         -5.09182        1.68286       -0.85082
B         -5.19706       -0.01321       -0.52168
B         -5.07841       -1.70856       -0.85692
B         -6.09303       -0.77684       -1.60912
B         -6.09882        0.74506       -1.60730
B          1.75787       -0.83465        0.87239
B         -2.60968       -0.00476        0.74338
B          0.33082        1.83236        1.10067
B          5.41170        1.55328       -1.32708
B          5.62055        0.01013       -1.30393
B          5.44110       -1.53757       -1.31570
B          0.34280        0.00091        1.10967
