45
isomer_0438.log	Energy: -113532.9859002
B         -2.60056       -1.46480       -0.43838
B         -2.85329       -3.09005       -0.57549
B         -1.69693       -3.92663        0.05895
B         -0.05772       -3.24924       -0.39801
B         -1.04001       -0.81385       -0.52895
B          1.69774       -0.97032       -1.02942
B          1.05594       -3.71290        0.91182
B         -3.98953       -0.45817       -0.47177
B          1.45578       -2.48258       -0.19641
B         -4.17914       -2.10182       -0.28140
B         -0.50498       -3.94468        1.02080
B          2.54538       -3.20817        0.80252
B          2.90673       -1.80794       -0.10052
B          4.42433       -1.11292        0.20259
B          0.59102        1.60882       -0.77927
B          2.09386        2.29839       -0.58537
B          3.49073        1.42690       -0.57647
B          4.83890        0.40436       -0.41296
B          4.84676        2.12621        0.15724
B          3.56662        3.02555       -0.11073
B          2.27392        3.94330        0.16043
B          0.75901        3.26164       -0.26836
B          0.94192        4.61274        0.53429
B         -2.03583        3.44254        0.41976
B         -0.53306        4.11771        0.47151
B         -2.22601        1.88115       -0.14246
B         -3.51492        2.80783        0.52322
B         -3.78705        1.27402       -0.19058
B         -0.76282        2.55462       -0.21956
B         -1.35181       -2.50437       -1.30477
B          3.33759       -0.29124       -0.83640
B         -0.90258        0.85516       -0.64406
B          4.05606       -2.56761        1.01172
B         -5.39253       -1.22558        0.22079
B         -5.16837        0.48730        0.29001
B         -4.93937        2.12107        0.77673
B         -6.24905        1.25987        1.14325
B         -6.45063       -0.22124        0.89602
B          1.87594        0.63490       -0.87507
B         -2.44596        0.30053       -0.70333
B          0.20140       -1.75511       -1.17856
B          5.38591       -1.89901        1.20632
B          5.84548       -0.42680        0.87656
B          5.81601        1.07442        0.68653
B         -1.32490       -2.28402        0.47723
