45
isomer_0439.log	Energy: -113380.5406116
B          2.54405       -1.69827        0.65754
B          2.53747       -3.22208       -0.59579
B          1.20497       -4.02729       -0.70720
B         -0.18463       -3.27861        0.10480
B          1.36444       -0.54920        1.27170
B         -1.59700       -0.80123        0.89869
B         -1.59307       -4.07753       -0.37442
B          3.82124       -0.80866        0.18058
B         -1.63080       -2.51348        0.59364
B          3.74339       -2.30464       -0.46585
B         -0.24275       -4.61329       -0.76268
B         -2.94844       -3.25382       -0.17326
B         -3.04372       -1.69810        0.31439
B         -4.47278       -0.84840       -0.06882
B         -0.35905        1.90738        0.99193
B         -1.76666        2.57646        0.46521
B         -3.13025        1.71145        0.19593
B         -4.54471        0.80110       -0.08268
B         -4.38285        2.43242       -0.73639
B         -3.08436        3.29146       -0.33897
B         -1.72777        4.16197       -0.43227
B         -0.34714        3.44281        0.33547
B         -0.33198        4.74093       -0.59555
B          2.47508        3.43767       -0.05956
B          1.10857        4.18150       -0.28240
B          2.49521        1.72266        0.57548
B          3.76809        2.57373       -0.17520
B          3.84776        0.96111        0.21745
B          1.13784        2.65772        0.58180
B          1.41001       -2.96814        0.57649
B         -3.21007        0.00198        0.62258
B          1.14100        1.02899        1.09794
B         -4.31459       -2.48495       -0.60400
B          5.09034       -1.49310       -0.80993
B          5.13201        0.10435       -0.30892
B          5.09248        1.75880       -0.64614
B          6.14897        0.89048       -1.35409
B          6.15344       -0.58369       -1.42816
B         -1.69635        0.86377        0.77941
B          1.36876       -2.00428        1.84040
B         -0.16002       -1.83268        1.12071
B         -5.45042       -1.62182       -1.08806
B         -5.66747       -0.07275       -1.13081
B         -5.47083        1.46266       -1.20661
B         -0.22739        0.04458        1.00559
