45
isomer_0441.log	Energy: -113505.2273016
B          2.18291        2.09048       -0.53419
B          1.81571        3.65445        0.17101
B          0.38367        4.31426        0.15654
B         -0.89433        3.40674       -0.62244
B          1.00607        1.19468       -1.28186
B         -1.87845        0.63383       -1.10118
B         -2.35196        3.90808        0.19041
B          3.61441        1.45861       -0.03350
B         -2.15574        2.31615       -0.62743
B          3.15921        2.90820        0.55905
B         -1.09160        4.70674        0.34043
B         -3.52965        2.79327        0.22287
B         -3.35555        1.26272       -0.30365
B         -4.42622        0.09096        0.37033
B          0.04248       -1.61712       -1.16725
B         -1.11882       -2.60336       -0.46608
B         -2.64430       -2.10973       -0.13108
B         -4.25508       -1.54833        0.09292
B         -3.64387       -3.05869        0.84911
B         -2.17075       -3.58537        0.42773
B         -0.60339       -4.06653        0.44203
B          0.46478       -3.09523       -0.51586
B          0.88312       -4.23831        0.53197
B          3.34343       -2.86406       -0.92826
B          2.15454       -3.44700       -0.00877
B          2.90050       -0.99308       -1.34124
B          4.39312       -1.76074       -0.79133
B          3.96210       -0.21323       -0.44522
B          1.69587       -1.97483       -0.80536
B          0.71005        2.85615       -0.75874
B         -3.16145       -0.47180       -0.59552
B          1.35663       -0.36222       -1.43432
B         -4.69330        1.74717        0.72470
B          4.19691        2.04053        1.47347
B          4.59813        0.52372        0.91108
B          4.44763       -1.23298        0.95787
B          5.06529       -0.45642        2.16154
B          4.91806        0.99605        2.40840
B         -1.49895       -0.93347       -0.81942
B          2.99268       -1.75100        0.37662
B         -0.63792        1.89290       -1.25420
B         -5.60598        0.66984        1.27073
B         -5.44234       -0.88608        1.32675
B         -4.85673       -2.31732        1.37184
B         -0.27093        0.12137       -1.37053
