45
isomer_0442.log	Energy: -110380.1694853
B          2.65074       -1.68447        0.36276
B          2.63913       -3.32246       -0.01733
B          1.23104       -4.14834       -0.26635
B         -0.22567       -3.31169        0.27738
B          1.19265       -0.78821        0.66206
B         -1.68249       -0.80916        0.73473
B         -1.61523       -4.09305       -0.41756
B          4.11230       -0.81472        0.29562
B         -1.60559       -2.41373        0.17449
B          4.04968       -2.50654       -0.16139
B         -0.19176       -4.76090       -0.55069
B         -3.04452       -3.24179       -0.43831
B         -3.06868       -1.62026        0.12799
B         -4.52375       -0.80315       -0.37516
B         -0.24094        1.74279        0.80750
B         -1.61864        2.44198        0.17518
B         -3.07744        1.64067        0.12845
B         -4.52810        0.81589       -0.37494
B         -4.36362        2.37402       -0.61919
B         -3.06200        3.26247       -0.43739
B         -1.63730        4.12139       -0.41640
B         -0.24356        3.34731        0.27832
B         -0.21745        4.79691       -0.54933
B          2.62114        3.37356       -0.01638
B          1.20863        4.19193       -0.26517
B          2.64155        1.73555        0.36325
B          4.03605        2.56527       -0.16067
B          4.10776        0.87369        0.29586
B          1.20850        2.55597        0.51962
B          1.22212       -2.51262        0.51890
B         -3.15790       -0.09008        0.52446
B          1.18830        0.83138        0.66229
B         -4.35089       -2.36030       -0.61986
B          5.37402       -1.69816       -0.65940
B          5.36571       -0.06704       -0.42526
B          5.36471        1.76417       -0.65890
B          6.53528        0.81259       -1.25604
B          6.53945       -0.74013       -1.25626
B         -1.68692        0.83686        0.73496
B         -0.48166        0.63635        3.02848
B         -0.23167       -1.70733        0.80701
B         -5.86043       -1.65328       -0.84068
B         -6.05980        0.05944       -0.90631
B         -5.86664        1.78994       -0.91078
B         -0.64612       -1.42268        1.12043
