45
isomer_0443.log	Energy: -112712.8912965
B          2.46748        1.78647       -0.46287
B          2.40134        3.43244       -0.08419
B          0.98552        4.20958        0.15883
B         -0.44574        3.36281       -0.37705
B          0.99390        0.85321       -0.76777
B         -1.85565        0.82880       -0.83792
B         -1.83989        4.11138        0.31788
B          3.92207        0.97508       -0.38957
B         -1.81183        2.44730       -0.27269
B          3.80896        2.66080        0.06420
B         -0.43924        4.77877        0.44118
B         -3.24276        3.24786        0.33943
B         -3.25038        1.62884       -0.22658
B         -4.69043        0.77808        0.26870
B         -0.37799       -1.71280       -0.90849
B         -1.75550       -2.43200       -0.28521
B         -3.20941       -1.65325       -0.24016
B         -4.66333       -0.84960        0.25860
B         -4.49542       -2.41607        0.51086
B         -3.16201       -3.27773        0.31757
B         -1.74445       -4.11057        0.29721
B         -0.36605       -3.31943       -0.38684
B         -0.32227       -4.74144        0.42319
B          2.48740       -3.35510       -0.06957
B          1.08503       -4.14314        0.15271
B          2.46326       -1.67329       -0.45112
B          3.92269       -2.61211        0.11380
B          3.96369       -0.70638       -0.39059
B          1.06923       -2.51384       -0.61888
B          1.00470        2.59551       -0.61928
B         -3.31598        0.07613       -0.62684
B          1.04288       -0.80168       -0.75675
B         -4.56586        2.35410        0.52959
B          5.12717        1.89714        0.56451
B          5.19473        0.26222        0.34055
B          5.29535       -1.60119        0.62626
B          6.37045       -0.56605        1.17795
B          6.31770        0.97382        1.16488
B         -1.83684       -0.82751       -0.83984
B          3.96097       -1.71289        0.08324
B         -0.42806        1.75231       -0.91071
B         -6.00657        1.57291        0.72879
B         -6.16344       -0.10382        0.77988
B         -5.95331       -1.78101        0.77877
B          2.05787        0.32534        0.08436
