45
isomer_0448.log	Energy: -112439.3505810
B          2.62147       -1.66112        0.34192
B          2.61500       -3.29404       -0.05949
B          1.20906       -4.12406       -0.30690
B         -0.24709       -3.30233        0.26055
B          1.16146       -0.77659        0.66576
B         -1.71277       -0.81375        0.76346
B         -1.63869       -4.08190       -0.43231
B          4.07785       -0.78282        0.27331
B         -1.63251       -2.41044        0.18160
B          4.01996       -2.46883       -0.20526
B         -0.21301       -4.74040       -0.58670
B         -3.07251       -3.23805       -0.42931
B         -3.10006       -1.62420        0.15838
B         -4.56376       -0.80832       -0.32119
B         -0.28390        1.74465        0.85697
B         -1.67076        2.44471        0.24603
B         -3.12575        1.63635        0.20165
B         -4.57652        0.81053       -0.29971
B         -4.42229        2.37256       -0.52496
B         -3.12375        3.26546       -0.34301
B         -1.70340        4.13158       -0.32331
B         -0.29955        3.35591        0.34891
B         -0.28830        4.81631       -0.45987
B          2.56225        3.40121        0.02936
B          1.14336        4.21524       -0.19623
B          2.59453        1.75851        0.38730
B          3.98001        2.60239       -0.13796
B          4.06455        0.90539        0.29572
B          1.15868        2.56920        0.56703
B          1.19861       -2.49881        0.49977
B         -3.19370       -0.09982        0.57564
B          1.14871        0.84281        0.68725
B         -4.38500       -2.36121       -0.58778
B          5.33561       -1.64700       -0.70427
B          5.32092       -0.01915       -0.44871
B          5.30833        1.81492       -0.65833
B          6.47848        0.87744       -1.27817
B          6.49071       -0.67510       -1.29877
B         -1.72574        0.83208        0.78531
B          0.76776       -0.98445        2.85797
B         -0.25672       -1.70507        0.81119
B         -5.90008       -1.65939       -0.78602
B         -6.10892        0.05296       -0.82745
B         -5.92480        1.78438       -0.81093
B         -0.08773       -0.45777        0.23157
