45
isomer_0449.log	Energy: -113365.6655819
B          2.46320        1.77139       -0.59969
B          2.38306        3.45478       -0.01372
B          1.01818        4.18661        0.09385
B         -0.41158        3.46089       -0.54713
B          1.04301        1.04929       -1.11329
B         -1.75812        0.88788       -1.04225
B         -1.78080        4.11210        0.27367
B          3.86861        1.10612       -0.25361
B         -1.81524        2.52042       -0.50980
B          3.69722        2.68715        0.13797
B         -0.39449        4.73713        0.39932
B         -3.14326        3.24801        0.25356
B         -3.19726        1.71086       -0.28026
B         -4.41725        0.71827        0.34467
B         -0.22541       -1.41871       -1.05087
B         -1.56566       -2.39599       -0.65944
B         -3.02822       -1.71944       -0.33301
B         -4.48687       -0.91601        0.07899
B         -4.06963       -2.42567        0.83114
B         -2.65070       -3.12881        0.40271
B         -1.21027       -3.86226        0.32234
B         -0.04651       -3.19783       -0.96196
B          0.03837       -4.69314        0.08341
B          2.31663       -2.99249        0.22664
B          1.40437       -4.16584       -0.34456
B          2.52468       -1.46330       -0.71631
B          3.66077       -2.11775        0.42187
B          3.82751       -0.60537       -0.17425
B          1.39442       -2.48806       -1.31957
B          1.07915        2.66305       -0.81911
B         -3.22982        0.00940       -0.62518
B          1.17677       -0.53658       -1.00377
B         -4.47878        2.39937        0.67411
B          5.02328        1.89406        0.74183
B          5.12788        0.25173        0.36746
B          4.97551       -1.36496        0.89253
B          5.97138       -0.42722        1.61805
B          6.02346        1.05014        1.52055
B         -1.71003       -0.72028       -0.97320
B          0.47308       -3.17568        0.77556
B         -0.40326        1.84119       -1.17410
B         -5.56872        1.45932        1.17844
B         -5.62230       -0.09786        1.26828
B         -5.20965       -1.57544        1.36566
B          0.93329       -1.73044        0.24245
