45
isomer_0450.log	Energy: -113361.1342481
B          2.54178       -1.66902        0.55105
B          2.46781       -3.00675       -0.42738
B          1.08234       -3.46128       -1.02018
B         -0.27369       -3.51155        0.01325
B          1.22886       -0.80544        0.94679
B         -1.71873       -0.76314        0.96646
B         -1.68366       -3.51290       -0.99138
B          3.98198       -0.83250        0.31446
B         -1.66853       -2.67745        0.70190
B          3.82230       -2.30947       -0.36172
B         -0.29909       -3.71742       -1.57697
B         -3.04059       -3.10995       -0.40771
B         -3.04859       -1.71088        0.30715
B         -4.46490       -0.71893       -0.09798
B         -0.24027        1.76349        0.79426
B         -1.68367        2.55176        0.35486
B         -3.13445        1.78757        0.23558
B         -4.59376        0.91232        0.19436
B         -4.44729        2.53719       -0.52045
B         -3.02259        3.33664       -0.31065
B         -1.60569        4.12801       -0.45703
B         -0.20641        3.33085        0.22720
B         -0.17852        4.66027       -0.66173
B          2.61136        3.22401       -0.20343
B          1.22955        4.04957       -0.40314
B          2.66200        1.66544        0.51219
B          4.01227        2.44110       -0.18076
B          4.02213        0.83574        0.21885
B          1.26136        2.46554        0.33532
B          1.14024       -2.66688        0.72589
B         -3.20821        0.07206        0.64677
B          1.28291        0.78729        0.88553
B         -4.46310       -2.35150       -0.53261
B          5.31189       -1.57705       -0.49686
B          5.42669       -0.00646        0.07810
B          5.38117        1.65376       -0.45996
B          6.45936        0.69235       -1.01985
B          6.50828       -0.77161       -0.95864
B         -1.68430        0.86872        0.70959
B         -0.23230       -3.18037        1.57894
B         -0.29627       -1.64483        1.29227
B         -5.65501       -1.46124       -0.83564
B         -5.80758        0.07648       -0.83480
B         -5.56179        1.60407       -0.89489
B         -0.21531        0.02241        1.06299
