45
isomer_0452.log	Energy: -109609.4927093
B         -2.60606       -1.64887       -0.42718
B         -2.60559       -3.28493       -0.03874
B         -1.20288       -4.12083        0.20720
B          0.25762       -3.29871       -0.34840
B         -1.14242       -0.76589       -0.73867
B          1.73204       -0.81035       -0.82618
B          1.64449       -4.08767        0.34332
B         -4.06023       -0.76705       -0.35691
B          1.64521       -2.41137       -0.25731
B         -4.00878       -2.45696        0.10846
B          0.21644       -4.74336        0.48727
B          3.08066       -3.24784        0.35225
B          3.11485       -1.62947       -0.22250
B          4.57904       -0.82153        0.26887
B          0.31063        1.75271       -0.90456
B          1.69719        2.44401       -0.28303
B          3.14975        1.63124       -0.23977
B          4.59637        0.79740        0.26030
B          4.44566        2.35802        0.49739
B          3.15028        3.25598        0.31780
B          1.73242        4.12621        0.29980
B          0.32890        3.35984       -0.38367
B          0.31874        4.81381        0.43664
B         -2.53392        3.41064       -0.07421
B         -1.11361        4.21887        0.16302
B         -2.56945        1.77093       -0.44530
B         -3.95449        2.61450        0.08160
B         -4.04216        0.92124       -0.36585
B         -1.13070        2.57898       -0.61334
B         -1.18496       -2.48927       -0.58649
B          3.21425       -0.10210       -0.62729
B         -1.12508        0.85358       -0.74724
B          4.39499       -2.37597        0.52246
B         -5.32396       -1.63543        0.60919
B         -5.30381       -0.00565        0.36662
B         -5.28690        1.82666        0.59085
B         -6.46191        0.88758        1.19895
B         -6.47853       -0.66503        1.20718
B          1.74966        0.83556       -0.83490
B         -0.84030       -2.13239       -0.46324
B          0.27370       -1.69717       -0.88629
B          5.91128       -1.68000        0.73179
B          6.12471        0.03137        0.78758
B          5.94547        1.76337        0.78416
B         -0.63862        0.62531        0.04835
