45
isomer_0453.log	Energy: -113441.9681611
B          2.45101        1.82368       -0.46721
B          2.37444        3.45203        0.11138
B          0.98016        4.21807        0.27847
B         -0.44061        3.42779       -0.33988
B          1.14798        0.95922       -1.03409
B         -1.77538        0.86181       -0.72580
B         -1.83330        4.13218        0.42122
B          3.72892        1.01784        0.01564
B         -1.84732        2.55117       -0.45865
B          3.79813        2.69095        0.15990
B         -0.45420        4.75266        0.56075
B         -3.19313        3.24725        0.35009
B         -3.21419        1.67940       -0.16523
B         -4.64444        0.72835       -0.04598
B         -0.27755       -1.65388       -1.30381
B         -1.55300       -2.48779       -0.56628
B         -3.02538       -1.74357       -0.31686
B         -4.41195       -0.90677        0.21395
B         -4.26586       -2.56318        0.59785
B         -2.83006       -3.27228        0.16929
B         -1.38145       -3.97989        0.24422
B          0.07559       -3.24220       -0.39313
B         -0.05120       -4.50002        0.66292
B          2.66147       -3.19390        0.79637
B          1.38372       -4.10390        0.81141
B          2.47457       -1.74115       -0.39431
B          3.73875       -2.13619        0.65110
B          3.68444       -0.64548        0.00673
B          1.81978       -3.42113       -0.59140
B          1.08902        2.68716       -0.57254
B         -3.25552       -0.02758       -0.65376
B          1.28498       -0.63257       -1.02373
B         -4.49819        2.36299        0.69008
B          5.12805        1.93498        0.51129
B          5.17582        0.23755        0.08063
B          5.16468       -1.31672        0.68192
B          6.37018       -0.47285        0.99954
B          6.24530        1.00871        1.06328
B         -1.68398       -0.78854       -1.00698
B          1.16973       -2.28437       -1.41980
B         -0.39889        1.88218       -0.97225
B         -5.51963        1.32907        1.14743
B         -5.69562       -0.21168        1.10679
B         -5.44656       -1.75460        1.08540
B         -0.24932        0.09522       -0.96597
