45
isomer_0454.log	Energy: -113675.8809126
B         -2.56510       -1.72898       -0.53215
B         -2.51739       -3.30326        0.03573
B         -1.16165       -4.14940        0.10625
B          0.26569       -3.40392       -0.54201
B         -1.17177       -0.85097       -1.06894
B          1.71478       -0.84314       -0.77838
B          1.63755       -4.17165        0.25709
B         -3.98519       -0.84299       -0.22440
B          1.72101       -2.55277       -0.42844
B         -3.87153       -2.48291        0.27576
B          0.21463       -4.74880        0.35017
B          3.00495       -3.34375        0.27925
B          3.12567       -1.73504       -0.21670
B          4.54698       -0.89823        0.14181
B          0.37188        1.82435       -1.11816
B          1.80504        2.53191       -0.49079
B          3.17508        1.67864       -0.26130
B          4.53092        0.79372        0.24235
B          4.40997        2.44246        0.74806
B          3.09556        3.27869        0.26526
B          1.75260        4.14363        0.24443
B          0.35459        3.38375       -0.51361
B          0.34642        4.74567        0.35095
B         -2.42419        3.33658        0.03865
B         -1.04360        4.15766        0.12201
B         -2.50689        1.76074       -0.48767
B         -3.80699        2.53934        0.29295
B         -3.95495        0.91318       -0.21531
B         -1.11669        2.59054       -0.76450
B         -1.18864       -2.57692       -0.78946
B          3.29277       -0.01742       -0.60856
B         -1.12817        0.84910       -1.04124
B          4.32233       -2.50243        0.77159
B         -5.10515       -1.64788        0.84578
B         -5.19525        0.04832        0.52336
B         -5.05825        1.74238        0.86573
B         -6.08271        0.81863        1.61399
B         -6.10423       -0.70179        1.60702
B          1.79045        0.83035       -0.91711
B         -2.60934        0.01721       -0.74656
B          0.31090       -1.83027       -1.08558
B          5.36821       -1.57156        1.33945
B          5.61992       -0.03616        1.30468
B          5.47713        1.51629        1.29956
B          0.34269       -0.00294       -1.09105
