45
isomer_0455.log	Energy: -110489.6674755
B         -2.63999        1.76764        0.40417
B         -2.63450        3.41015        0.04397
B         -1.22928        4.24551       -0.18914
B          0.22908        3.40911        0.35053
B         -1.17896        0.87460        0.69872
B          1.69572        0.90801        0.78369
B          1.61782        4.20527       -0.32908
B         -4.09717        0.89199        0.32039
B          1.61361        2.51888        0.24258
B         -4.04060        2.58949       -0.11586
B          0.19179        4.86807       -0.46008
B          3.05116        3.36097       -0.35413
B          3.08059        1.73283        0.19262
B          4.54155        0.92863       -0.31427
B          0.26587       -1.65129        0.81954
B          1.64944       -2.33637        0.18460
B          3.10465       -1.52779        0.15368
B          4.55349       -0.69025       -0.33360
B          4.39733       -2.24605       -0.59737
B          3.09916       -3.14267       -0.43179
B          1.67843       -4.00838       -0.42716
B          0.27821       -3.24926        0.27102
B          0.26232       -4.68884       -0.57420
B         -2.58509       -3.28524       -0.03599
B         -1.16774       -4.09396       -0.28873
B         -2.61475       -1.65206        0.36333
B         -4.00317       -2.48183       -0.17642
B         -4.08471       -0.79626        0.30023
B         -1.17853       -2.46765        0.51578
B         -1.21593        2.60046        0.57630
B          3.17534        0.19839        0.57093
B         -1.16701       -0.74484        0.67938
B          4.36240        2.48782       -0.54084
B         -5.35905        1.78107       -0.62916
B         -5.34407        0.14729       -0.41473
B         -5.33351       -1.68093       -0.67050
B         -6.50604       -0.72763       -1.26099
B         -6.51750        0.82494       -1.24245
B          1.70787       -0.73785        0.76403
B          0.04294       -0.94059        2.51501
B          0.24041        1.79849        0.86074
B          5.87613        1.79054       -0.76386
B          6.08380        0.07968       -0.84937
B          5.89879       -1.65152       -0.87557
B          0.19970       -2.61861        0.26401
