45
isomer_0456.log	Energy: -113701.4437552
B          3.19998        0.55493       -0.72334
B          3.49365        2.15237       -0.16053
B          2.44623        3.33763       -0.18658
B          0.82099        2.83554       -0.31930
B          1.56494        0.12284       -1.28248
B         -1.25941        0.92394       -0.86047
B         -0.28762        4.09538        0.05304
B          4.42499       -0.63166       -1.01066
B         -0.83304        2.57866       -0.54413
B          4.53956        0.99303        0.33292
B          1.23907        4.31632        0.05085
B         -1.89432        3.66309        0.15144
B         -2.34046        2.07907       -0.10090
B         -3.98939        1.68451        0.01300
B         -0.49440       -1.85250       -1.18764
B         -2.15920       -2.27563       -1.02116
B         -3.28473       -1.15037       -0.52453
B         -4.36106        0.01033       -0.02285
B         -4.50339       -1.52651        0.64923
B         -3.52008       -2.76973        0.23424
B         -2.58168       -3.83696       -0.41805
B         -1.01700       -3.57906       -0.60154
B         -1.90264       -2.81113        0.78572
B          1.24802       -2.86002        1.19235
B         -0.32702       -2.81606        1.04748
B          2.05831       -2.49885       -0.28653
B          2.28110       -1.55498        1.20058
B          2.87924       -1.16193       -0.77639
B          0.59280       -3.15509       -0.51995
B          2.06777        1.76867       -0.88913
B         -2.96711        0.59848       -0.74177
B          1.08567       -1.47839       -1.35278
B         -3.40888        3.26456        0.58003
B          5.66103       -0.33775       -0.19556
B          3.96820       -0.70942        0.63433
B          3.22541       -0.70394        2.08785
B          4.54049        0.03390        2.06898
B          5.75899        0.19209        1.17878
B         -1.71923       -0.67817       -0.99221
B          0.61528       -1.40420        0.47969
B          0.38494        1.34797       -1.02204
B         -4.72269        2.64186        1.06837
B         -5.21079        1.17826        1.14562
B         -5.27125       -0.34571        1.24988
B         -0.04131       -0.23533       -0.46388
