45
isomer_0457.log	Energy: -113527.7153283
B          2.79546       -1.75268        0.26318
B          2.70193       -3.26981       -0.11173
B          1.35175       -3.98425       -0.26981
B         -0.10149       -3.23555        0.23900
B          2.23172       -0.24599        0.58970
B         -1.74379       -0.84644        0.78149
B         -1.47003       -4.12745       -0.38612
B          4.02533       -0.79357        0.13409
B         -1.63093       -2.52404        0.39769
B          4.19235       -2.42782       -0.25430
B         -0.03379       -4.61767       -0.54280
B         -2.90106       -3.41708       -0.27106
B         -3.07905       -1.81394        0.23067
B         -4.57880       -1.01950        0.00649
B         -0.47332        1.81857        1.03912
B         -1.89599        2.48088        0.44435
B         -3.29380        1.64675        0.37188
B         -4.52227        0.63138       -0.27886
B         -4.55476        2.29656       -0.66467
B         -3.24835        3.19184       -0.24243
B         -1.92344        4.07314       -0.34208
B         -0.49334        3.37806        0.44171
B         -0.52489        4.61338       -0.59076
B          2.27065        3.27998       -0.31021
B          0.90845        4.06702       -0.38570
B          2.38382        1.64209        0.41805
B          3.65695        2.53265       -0.36899
B          3.79674        0.92702        0.05897
B          0.98643        2.56125        0.45267
B          1.30382       -2.19918        0.47896
B         -3.29962       -0.08687        0.63489
B          1.10068        0.96938        1.08512
B         -4.27347       -2.66178       -0.63772
B          5.47589       -1.50685       -0.56449
B          5.23538        0.19893       -0.30665
B          5.07871        1.86299       -0.67556
B          6.31994        1.03632       -1.15527
B          6.51042       -0.45757       -1.06869
B         -1.88418        0.81553        1.10619
B          1.01746       -0.77648        1.46585
B         -0.28252       -1.69602        0.85268
B         -5.37289       -1.75223       -1.15836
B         -5.69998       -0.22617       -1.16308
B         -5.62112        1.34259       -1.16705
B         -0.44100        0.07261        1.42363
