45
isomer_0458.log	Energy: -113367.9960893
B         -2.51395        1.71650        0.48028
B         -2.56431        3.33499        0.08229
B         -1.23232        4.14263       -0.09061
B          0.29684        3.39099        0.39443
B         -1.05145        0.82493        0.97113
B          1.71346        0.84666        0.82341
B          1.62446        4.13408       -0.37578
B         -3.96954        0.83893        0.23046
B          1.70415        2.50378        0.27477
B         -3.96082        2.53106       -0.17123
B          0.19501        4.72079       -0.45618
B          3.03731        3.27954       -0.37339
B          3.13504        1.72870        0.15504
B          4.52460        0.86870       -0.25296
B          0.42011       -1.67974        0.94901
B          1.79369       -2.46960        0.30952
B          3.19059       -1.65452        0.22095
B          4.55041       -0.77577       -0.20156
B          4.55576       -2.42125       -0.60788
B          3.14011       -3.22479       -0.32719
B          1.75241       -4.10962       -0.34889
B          0.39954       -3.36913        0.38204
B          0.33318       -4.71667       -0.45515
B         -2.47713       -3.35762       -0.00351
B         -1.10230       -4.15350       -0.14153
B         -2.51045       -1.75249        0.38367
B         -3.87443       -2.57545       -0.26965
B         -3.96128       -0.90251        0.21001
B         -1.04270       -2.59834        0.58616
B         -1.13071        2.58542        0.67560
B          3.23238        0.05407        0.53940
B         -1.10245       -0.82678        0.61741
B          4.47501        2.52063       -0.64083
B         -5.21800        1.71929       -0.68757
B         -5.23989       -0.00706       -0.47786
B         -5.21749       -1.72738       -0.73656
B         -6.32150       -0.78040       -1.34091
B         -6.32212        0.75772       -1.33396
B          1.75640       -0.79603        0.83888
B         -2.49212       -0.04828        0.31475
B          0.36925        1.68535        0.95282
B          5.70408        1.64515       -0.98220
B          5.90761        0.07162       -0.96674
B          5.74344       -1.52137       -0.97908
B         -0.24987       -0.43320        1.82919
