45
isomer_0459.log	Energy: -111050.0658170
B         -2.55372        1.76902        0.33901
B         -2.52385        3.41107       -0.02208
B         -1.10577        4.22969       -0.23585
B          0.33491        3.37664        0.32485
B         -1.10759        0.85910        0.65467
B          1.76581        0.85882        0.78016
B          1.74235        4.15590       -0.33559
B         -4.01977        0.91048        0.23521
B          1.71027        2.47012        0.23697
B         -3.93710        2.60686       -0.20123
B          0.32621        4.83530       -0.48709
B          3.16589        3.29481       -0.33991
B          3.16846        1.66686        0.20818
B          4.62687        0.84517       -0.27757
B          0.30561       -1.68349        0.79739
B          1.68984       -2.38526        0.18244
B          3.15475       -1.59385        0.17156
B          4.62006       -0.77375       -0.29575
B          4.44935       -2.32782       -0.56075
B          3.13853       -3.20900       -0.41295
B          1.70780       -4.05797       -0.42784
B          0.30690       -3.28192        0.25007
B          0.28601       -4.72185       -0.59443
B         -2.55202       -3.28450       -0.09727
B         -1.14085       -4.11001       -0.32951
B         -2.56811       -1.65078        0.30060
B         -3.95844       -2.46461       -0.25818
B         -4.02687       -0.77782        0.21625
B         -1.14386       -2.48306        0.47378
B         -1.12254        2.58519        0.53070
B          3.23983        0.13170        0.58872
B         -1.11440       -0.76038        0.63648
B          4.46927        2.40618       -0.50758
B         -5.25760        1.81358       -0.73258
B         -5.26485        0.17990       -0.51697
B         -5.27217       -1.64851       -0.77146
B         -6.42498       -0.68196       -1.37900
B         -6.41845        0.87065       -1.36157
B          1.75888       -0.78709        0.76167
B         -2.00386       -0.31426        2.95839
B          0.32012        1.76639        0.83614
B          5.97770        1.69100       -0.70881
B          6.16643       -0.02225       -0.79034
B          5.96148       -1.75117       -0.81810
B         -0.87653       -1.96315        0.97914
