45
isomer_0046.log	Energy: -113458.2534513
B          2.64349       -1.53877        0.56760
B          2.62329       -3.24382       -0.00768
B          1.32161       -4.06106        0.05504
B         -0.19777       -3.32431        0.78072
B          1.22192       -0.75502        0.92461
B         -1.67630       -0.91964        0.97122
B         -1.46692       -4.09874       -0.23423
B          3.98340       -0.77995        0.27585
B         -1.34326       -2.35011       -0.15320
B          3.90236       -2.35426       -0.18817
B         -0.07698       -4.64517       -0.18082
B         -2.80142       -3.27360       -0.45578
B         -2.97148       -1.80219        0.18491
B         -4.32244       -0.87354       -0.36170
B         -0.32599        1.78513        0.97144
B         -1.80266        2.54525        0.60129
B         -3.15392        1.67713        0.29209
B         -4.54879        0.73605        0.00163
B         -4.45163        2.41769       -0.53614
B         -3.11917        3.28257       -0.15997
B         -1.76608        4.13432       -0.21277
B         -0.33309        3.36914        0.39958
B         -0.35457        4.72019       -0.42172
B          2.46826        3.41436       -0.09245
B          1.08997        4.15903       -0.19860
B          2.55443        1.73109        0.65789
B          3.74065        2.56441       -0.27099
B          3.93484        0.98941        0.21506
B          1.14554        2.51181        0.42612
B          1.19238       -2.38572        0.38741
B         -3.18264       -0.08171        0.59071
B          1.22447        0.93836        1.04527
B         -4.16480       -2.51406       -0.85791
B          5.22728       -1.53212       -0.69907
B          5.21811        0.13093       -0.33021
B          5.06091        1.74207       -0.78691
B          6.12005        0.84036       -1.49585
B          6.22371       -0.64366       -1.41075
B         -1.74189        0.85476        0.86147
B         -0.10953       -1.26026       -0.17773
B         -0.29124       -1.81374        1.48252
B         -5.35927       -1.64001       -1.27622
B         -5.60937       -0.10892       -1.18531
B         -5.47515        1.45108       -1.08338
B         -0.25031        0.00526        1.08513
