45
isomer_0462.log	Energy: -113675.8812207
B          2.51234        1.75909       -0.49063
B          2.43189        3.33239        0.04140
B          1.05310        4.15653        0.12368
B         -0.34590        3.38629       -0.51610
B          1.13276        0.84871       -1.04555
B         -1.78050        0.83087       -0.90366
B         -1.74179        4.14524        0.24772
B          3.95745        0.90641       -0.21533
B         -1.79788        2.53386       -0.48609
B          3.81311        2.53419        0.29252
B         -0.33484        4.74588        0.35312
B         -3.08657        3.28308        0.26732
B         -3.17082        1.68301       -0.25835
B         -4.53366        0.80372        0.23074
B         -0.31537       -1.83160       -1.09056
B         -1.72951       -2.55044       -0.43564
B         -3.13157       -1.72993       -0.22419
B         -4.54604       -0.88861        0.15160
B         -4.33138       -2.49597        0.77018
B         -3.01288       -3.33589        0.27867
B         -1.64765       -4.16767        0.25932
B         -0.27323       -3.40196       -0.53594
B         -0.22692       -4.74798        0.35487
B          2.50875       -3.30517        0.03644
B          1.15007       -4.14946        0.11128
B          2.55958       -1.73245       -0.52661
B          3.86639       -2.48799        0.27626
B          3.98221       -0.84868       -0.22393
B          1.18197       -2.57879       -0.78892
B          1.12312        2.58941       -0.76728
B         -3.29398       -0.01444       -0.60894
B          2.60946        0.01438       -0.74493
B         -4.40259        2.44715        0.75095
B          5.06314        1.73373        0.86389
B          5.19517        0.03945        0.52332
B          5.10210       -1.65692        0.84601
B          6.10310       -0.71321        1.60630
B          6.08519        0.80776        1.61282
B         -1.72092       -0.84313       -0.79910
B          1.16789       -0.84985       -1.06842
B         -0.36542        1.82691       -1.11660
B         -5.46757        1.52170        1.30415
B         -5.61984       -0.02976        1.30476
B         -5.37951       -1.56729        1.33750
B         -0.34245       -0.00260       -1.09805
