45
isomer_0463.log	Energy: -113411.0884534
B         -2.88061       -1.03889       -1.26616
B         -3.09096       -2.69470       -0.71918
B         -1.79028       -3.62833       -0.65609
B         -0.52951       -2.79633        0.17828
B         -1.35541       -0.46727       -1.26771
B          1.48646       -0.81044       -0.53817
B          0.77866       -4.00812        0.49073
B         -4.11973       -0.05383       -0.71992
B          1.11305       -2.33191        0.09050
B         -3.30514       -1.09828        0.61117
B         -0.56434       -4.40998       -0.04569
B          2.24568       -3.44753        0.67510
B          2.68460       -1.94052        0.04460
B          4.33680       -1.52903       -0.00367
B          0.68680        1.68431       -1.20518
B          2.26055        2.29765       -0.78405
B          3.45235        1.23767       -0.43367
B          4.59612        0.14559        0.16808
B          4.90384        1.82366        0.37923
B          3.68494        2.82780       -0.01680
B          2.44760        3.81601        0.07777
B          0.90236        3.27775       -0.51850
B          1.12734        4.59006        0.36518
B         -1.80766        3.58443        0.18879
B         -0.32797        4.19210        0.19599
B         -2.10617        2.00089       -0.45731
B         -3.11485        2.91181        0.49753
B         -3.62486        1.40593       -0.12869
B         -0.60730        2.58007       -0.68041
B         -1.47104       -2.16220       -1.45670
B          3.20786       -0.42975       -0.64212
B         -0.86385        1.03829       -1.13712
B          3.78407       -2.92289        0.88122
B         -5.07530       -1.02885        0.53596
B         -4.10156        0.31399        1.08468
B         -4.30223        2.09657        1.28579
B         -5.24090        1.25847        2.01129
B         -5.64924       -0.11548        1.63915
B          1.95367        0.63379       -1.12088
B         -4.36561       -1.73695       -0.72453
B         -0.13759       -1.22435       -0.41737
B          5.03197       -2.15581        1.30627
B          5.68421       -0.78301        1.08019
B          5.86332        0.75348        0.91272
B         -1.80015       -1.65584        0.23972
