45
isomer_0464.log	Energy: -111009.8179960
B         -2.55541        1.79585        0.37625
B         -2.52030        3.43936        0.02234
B         -1.09971        4.25357       -0.19164
B          0.33923        3.39263        0.36141
B         -1.11188        0.87911        0.68401
B          1.76182        0.86746        0.80176
B          1.74783        4.16951       -0.29936
B         -4.02496        0.94330        0.27261
B          1.71091        2.48135        0.26584
B         -3.93705        2.64127       -0.15656
B          0.33387        4.85490       -0.44406
B          3.16809        3.30309       -0.31131
B          3.16598        1.67274        0.22958
B          4.61997        0.84772       -0.26371
B          0.29208       -1.66938        0.81170
B          1.67201       -2.37363        0.18994
B          3.13986       -1.58771        0.17861
B          4.60700       -0.77107       -0.28901
B          4.42972       -2.32330       -0.56041
B          3.11598       -3.20018       -0.41298
B          1.68202       -4.04368       -0.42776
B          0.28587       -3.26537        0.25733
B          0.25728       -4.70147       -0.59345
B         -2.57395       -3.25565       -0.08233
B         -1.16654       -4.08544       -0.32200
B         -2.58281       -1.62366        0.32279
B         -3.97769       -2.42977       -0.23584
B         -4.03848       -0.74485        0.24621
B         -1.16126       -2.46205        0.48847
B         -1.12064        2.60577        0.56769
B          3.23257        0.13566        0.60315
B         -1.12486       -0.74023        0.65869
B          4.46765        2.41031       -0.48641
B         -5.26196        1.85533       -0.68785
B         -5.27479        0.22075       -0.47944
B         -5.28970       -1.60647       -0.74197
B         -6.44047       -0.63292       -1.34214
B         -6.42803        0.91957       -1.31787
B          1.74863       -0.77831        0.77603
B         -2.09394       -1.24676        2.55815
B          0.31972        1.78021        0.86563
B          5.97283        1.69035       -0.69485
B          6.15487       -0.02321       -0.78445
B          5.94331       -1.75121       -0.81929
B         -0.38468       -1.84346        0.40648
