45
isomer_0465.log	Energy: -113637.5340606
B         -2.43443        1.78049        0.23585
B         -2.39941        3.42385       -0.04391
B         -0.96662        4.17362       -0.05110
B          0.46090        3.38563        0.67822
B         -1.02735        0.87638        0.67676
B          1.87794        0.84716        0.83326
B          1.90024        4.07958       -0.13733
B         -3.84269        0.96479       -0.10925
B          1.92236        2.48274        0.54400
B         -3.82236        2.62008       -0.33827
B          0.48933        4.65157       -0.29215
B          3.24614        3.24909       -0.19401
B          3.33129        1.66096        0.42474
B          4.68043        0.73111       -0.05048
B          0.31227       -1.72562        1.13405
B          1.69098       -2.57347        0.36907
B          3.07512       -1.76793        0.08696
B          4.47981       -0.94063       -0.34764
B          4.32541       -2.58685       -0.82897
B          2.94494       -3.37215       -0.37251
B          1.49096       -4.11646       -0.29857
B          0.17804       -3.30598        0.55061
B          0.03343       -4.64112       -0.33047
B         -2.71329       -3.32300        0.19192
B         -1.34272       -4.12256        0.06003
B         -2.62195       -1.67727        0.53328
B         -4.05104       -2.44984       -0.07937
B         -3.91792       -0.77571       -0.01889
B         -1.30111       -2.55515        0.79702
B         -1.04087        2.60094        0.53134
B          3.31930       -0.10153        0.59544
B         -2.45338        0.05212        0.31178
B          4.51004        2.36072       -0.64867
B         -5.15835        1.84621       -0.78352
B         -5.21155        0.12430       -0.58004
B         -5.30957       -1.59914       -0.61624
B         -6.44061       -0.61379       -1.22291
B         -6.37770        0.90979       -1.29097
B          1.81450       -0.87319        0.82779
B          0.36255       -0.01561        1.18099
B          0.42060        1.71332        1.04736
B          5.48719        1.36075       -1.27356
B          5.71025       -0.17137       -1.26388
B          5.50307       -1.72375       -1.28274
B         -1.13415       -0.86306        0.84495
