45
isomer_0468.log	Energy: -110689.2204358
B         -2.56987        1.76185        0.40674
B         -2.54566        3.40500        0.05024
B         -1.13076        4.22633       -0.17401
B          0.31619        3.37376        0.37105
B         -1.11961        0.85315        0.70656
B          1.75481        0.85673        0.80590
B          1.71644        4.15704       -0.29986
B         -4.03555        0.90146        0.31375
B          1.69200        2.46954        0.26799
B         -3.95932        2.59924       -0.11842
B          0.29799        4.83479       -0.43648
B          3.14112        3.29806       -0.31967
B          3.15104        1.66852        0.22358
B          4.60615        0.85040       -0.27784
B          0.29851       -1.68777        0.82892
B          1.67811       -2.38569        0.19934
B          3.14171       -1.59209        0.17747
B          4.60152       -0.76847       -0.30073
B          4.43066       -2.32200       -0.56875
B          3.12251       -3.20554       -0.41163
B          1.69293       -4.05657       -0.41601
B          0.29713       -3.28458        0.27690
B          0.27064       -4.72206       -0.57162
B         -2.56482       -3.29035       -0.04443
B         -1.15463       -4.11310       -0.29193
B         -2.57965       -1.65783        0.35838
B         -3.97383       -2.47207       -0.19013
B         -4.04038       -0.78678        0.28988
B         -1.15268       -2.48852        0.51615
B         -1.13818        2.57957        0.58782
B          3.22809        0.13236        0.59892
B         -1.12424       -0.76628        0.68366
B          4.44421        2.41184       -0.50181
B         -5.28345        1.80557       -0.64007
B         -5.28636        0.17126       -0.42923
B         -5.29336       -1.65640       -0.68903
B         -6.45304       -0.68978       -1.28321
B         -6.44860        0.86278       -1.26125
B          1.75010       -0.78912        0.78263
B         -1.18173        0.22632        0.66867
B          0.30838        1.76200        0.87770
B          5.95177        1.69948       -0.71886
B          6.14224       -0.01324       -0.80715
B          5.93954       -1.74237       -0.83815
B         -0.93808       -2.41644        1.59803
