45
isomer_0470.log	Energy: -113442.8605380
B         -2.48248       -1.60235       -0.52041
B         -2.44879       -3.19394        0.09159
B         -1.16032       -4.03301        0.04182
B          0.16142       -3.41584       -0.90630
B         -1.16156       -0.79110       -0.86492
B          1.69662       -0.80072       -1.05285
B          1.62061       -4.20339        0.00722
B         -3.82611       -0.76806       -0.05487
B          1.40900       -2.47248       -0.18542
B         -3.76953       -2.31544        0.37991
B          0.23795       -4.70342        0.12678
B          2.82680       -3.27017        0.31489
B          2.87982       -1.69765       -0.15092
B          4.18948       -0.79457        0.56693
B          0.33896        1.81241       -0.96075
B          1.79160        2.58263       -0.64093
B          3.15440        1.73762       -0.31261
B          4.52699        0.78542        0.07765
B          4.35997        2.48586        0.62175
B          3.09378        3.34601        0.16155
B          1.74769        4.21040        0.16528
B          0.33152        3.41136       -0.48659
B          0.34447        4.80359        0.29646
B         -2.47226        3.45353       -0.08096
B         -1.08883        4.22071        0.04842
B         -2.53491        1.71648       -0.70408
B         -3.73407        2.59055        0.15018
B         -3.88783        0.98833       -0.22353
B         -1.14355        2.53816       -0.50008
B         -1.37199       -2.66368       -1.33488
B          3.19041       -0.02133       -0.54408
B         -1.18951        0.88208       -1.08841
B          4.09624       -2.44899        0.94137
B         -5.00457       -1.49071        0.98438
B         -5.02154        0.15531        0.56863
B         -5.05570        1.80817        0.73613
B         -6.08133        0.94266        1.52484
B         -6.05842       -0.55034        1.63500
B          1.74402        0.87696       -0.85037
B          0.28193        0.04225       -1.22618
B          0.23768       -1.75689       -1.17025
B          5.22323       -1.58348        1.47353
B          5.48417       -0.03649        1.39145
B          5.31839        1.48847        1.28005
B         -0.79384       -2.26492        0.27356
