45
isomer_0471.log	Energy: -113386.3444241
B         -2.08846        1.09668        0.51927
B         -1.82059        2.57311       -0.59187
B         -0.54811        3.41722       -0.82869
B          0.79461        3.22399        0.29331
B         -0.60388        0.83238        1.45888
B          2.37936        1.03964        1.51560
B          2.20453        3.70270       -0.70227
B         -3.85567        0.86398        0.42450
B          2.31189        2.46120        0.51690
B         -3.25339        2.21930       -0.25834
B          0.80648        4.08894       -1.07616
B          3.56351        2.87792       -0.50821
B          3.65427        1.51995        0.48059
B          4.67653        0.29975       -0.25592
B          0.14635       -0.72237        1.64221
B          1.12755       -2.07997        0.91637
B          2.67777       -1.81752        0.46362
B          4.19648       -1.31460       -0.19106
B          3.48217       -2.73877       -0.78054
B          1.94352       -3.13352       -0.31151
B          0.90984       -4.17315       -0.99438
B          0.22070       -3.19167        0.03970
B         -0.55371       -4.29520       -0.88017
B         -2.95187       -2.46940       -0.48781
B         -1.55889       -3.25795       -0.26872
B         -3.03144       -0.73725        0.38561
B         -4.28947       -1.77576       -0.42128
B         -4.70171       -0.59219        0.57610
B         -2.12254       -2.09081        0.82310
B         -0.63150        2.18330        0.42561
B          3.46134       -0.21867        0.79461
B         -1.50952       -0.52702        1.00909
B          4.73493        1.88091       -0.92921
B         -4.75321        2.05209       -0.66062
B         -5.48524        0.64386       -0.14978
B         -5.74886       -0.96984       -0.64723
B         -6.49428        0.12156       -1.39395
B         -5.98485        1.51895       -1.42862
B          1.90794       -0.63108        1.43044
B          0.98298        0.52449        2.20373
B          0.80344        1.95184        1.29755
B          5.52704        0.74774       -1.54522
B          5.31762       -0.77052       -1.50782
B          4.69981       -2.21221       -1.44917
B         -0.54345       -2.12203        1.05173
