45
isomer_0473.log	Energy: -113403.5635193
B          2.37213       -1.49289        0.56093
B          2.37093       -3.09348       -0.45729
B          1.05966       -3.85771       -0.75742
B         -0.40882       -3.50411        0.23370
B          0.95956       -1.03098        1.14213
B         -1.70304       -0.85423        1.04682
B         -1.78651       -3.86031       -0.79841
B          3.88005       -0.80519        0.28140
B         -1.79530       -2.49669        0.24299
B          3.64400       -2.24315       -0.38651
B         -0.36636       -4.28511       -1.15681
B         -3.16420       -3.07388       -0.49616
B         -3.13418       -1.57877        0.20160
B         -4.43970       -0.58237       -0.22978
B         -0.14281        1.68047        0.72928
B         -1.54092        2.48310        0.16955
B         -3.02856        1.83140        0.32359
B         -4.54075        1.03796        0.18063
B         -4.31463        2.66380       -0.46706
B         -2.87678        3.38210       -0.29139
B         -1.42550        4.06875       -0.52751
B         -0.02951        3.26578        0.20186
B          0.00881        4.47674       -0.82164
B          2.74773        3.11016       -0.30811
B          1.41667        3.84950       -0.54370
B          2.72172        1.40579        0.50270
B          4.06795        2.33573       -0.18261
B          4.20902        0.88274        0.46916
B          1.38044        2.22841        0.10035
B          1.04032       -2.51941        0.28918
B         -3.16388        0.10636        0.63646
B          1.35189        0.59422        0.73462
B         -4.54565       -2.21598       -0.67207
B          5.12503       -1.65333       -0.59478
B          5.39861       -0.10846       -0.00196
B          5.50052        1.54441       -0.38105
B          6.53947        0.58390       -0.97652
B          6.35337       -0.88094       -1.09882
B         -1.61726        0.84100        0.63569
B         -0.50868       -1.07472        2.29415
B         -0.42798       -2.20846        1.26413
B         -5.70194       -1.27401       -0.91844
B         -5.80296        0.28527       -0.85196
B         -5.48461        1.79171       -0.87200
B         -0.19733        0.24487        1.55104
