45
isomer_0475.log	Energy: -112561.9583836
B          2.66003        1.78379       -0.42824
B          2.55837        3.43568       -0.03775
B          1.16214        4.23722        0.18236
B         -0.29495        3.44667       -0.35903
B          1.29131        0.90314       -0.74331
B         -1.82700        0.98025       -0.81369
B         -1.69895        4.19725        0.32563
B          4.10080        0.94698       -0.34475
B         -1.72684        2.57994       -0.24433
B          3.95184        2.59766        0.10942
B         -0.26225        4.79685        0.44973
B         -3.16424        3.33118        0.36096
B         -3.24006        1.69501       -0.20178
B         -4.67352        0.82586        0.28328
B         -0.44571       -1.62978       -0.93242
B         -1.79519       -2.49518       -0.23118
B         -3.23131       -1.67760       -0.19905
B         -4.65072       -0.83096        0.28172
B         -4.52228       -2.44273        0.57806
B         -3.12922       -3.33848        0.37765
B         -1.60452       -4.21103        0.38068
B         -0.17813       -3.47983       -0.30388
B         -0.05652       -4.80426        0.47823
B          2.89703       -3.38403       -0.02041
B          1.54862       -4.30931        0.26416
B          2.86812       -1.64460       -0.41941
B          4.22387       -2.40650        0.12740
B          4.19571       -0.78081       -0.33518
B          1.57847       -2.61600       -0.55737
B          1.25259        2.63199       -0.59997
B         -3.35144        0.08700       -0.60145
B          1.31339       -0.59059       -0.74520
B         -4.56650        2.44144        0.56465
B          5.25975        1.85453        0.62199
B          5.33908        0.20321        0.39105
B          5.41988       -1.55572        0.62060
B          6.46387       -0.55494        1.22172
B          6.43095        0.91884        1.23976
B         -1.82732       -0.97069       -0.81245
B          0.41021       -2.17067       -0.70047
B         -0.15975        1.83003       -0.90695
B         -5.90818        1.56951        0.73955
B         -6.06451       -0.04342        0.78811
B         -5.85761       -1.65901        0.80059
B         -0.68929        0.30212       -0.64901
