45
isomer_0476.log	Energy: -113112.2600444
B         -2.76078        1.83541        0.43366
B         -2.58195        3.42504        0.08295
B         -1.17753        4.11791       -0.11097
B          0.28833        3.43029        0.44011
B         -1.95714        0.54807        0.64240
B          1.70068        0.84507        0.96522
B          1.64169        4.20345       -0.35207
B         -3.94213        0.89210        0.28909
B          1.75002        2.61042        0.35771
B         -4.03118        2.62162       -0.17421
B          0.22443        4.73494       -0.45479
B          3.03865        3.33123       -0.32968
B          3.11025        1.77281        0.23958
B          4.45270        0.88014       -0.26252
B          0.35027       -1.77899        1.11658
B          1.71878       -2.47117        0.32325
B          3.10036       -1.64971        0.20445
B          4.44277       -0.76270       -0.29982
B          4.45450       -2.39887       -0.72067
B          3.06186       -3.17709       -0.42799
B          1.72699       -4.08161       -0.44861
B          0.35460       -3.44256        0.34305
B          0.34984       -4.72700       -0.60307
B         -2.47982       -3.39698       -0.12692
B         -1.08355       -4.22132       -0.28803
B         -2.47207       -1.74715        0.55385
B         -3.72890       -2.47749       -0.29106
B         -3.85917       -0.87330        0.20897
B         -1.11202       -2.77662        0.62761
B         -1.23068        2.51912        0.62328
B          3.18267        0.06184        0.57690
B         -1.10938       -0.80995        0.86260
B          4.45049        2.54116       -0.61655
B         -5.18755        1.76875       -0.76657
B         -5.03556        0.04294       -0.55071
B         -4.96192       -1.60761       -0.86643
B         -6.03442       -0.70389       -1.55729
B         -6.14119        0.80128       -1.48435
B          1.70061       -0.84570        0.95698
B         -1.27016       -1.92574        1.93101
B          0.49219        1.89519        1.06291
B          5.62916        1.64742       -0.97035
B          5.80252        0.07309       -0.99888
B          5.63560       -1.48530       -1.05178
B         -0.50286        0.76145        0.91115
