45
isomer_0477.log	Energy: -113644.5022765
B         -2.54315       -1.76552       -0.50857
B         -2.45195       -3.37367        0.07399
B         -1.07674       -4.21313        0.15615
B          0.33993       -3.30630       -0.14588
B         -1.12776       -0.79809       -0.91517
B          1.77712       -0.78293       -0.79854
B          1.78145       -4.21355        0.18253
B         -3.97457       -0.91632       -0.29128
B          1.78800       -2.46991       -0.27328
B         -3.86783       -2.58225        0.16974
B          0.35985       -4.84210        0.28009
B          3.15042       -3.33594        0.13033
B          3.21580       -1.70055       -0.36323
B          4.58488       -0.81067        0.05387
B          0.31940        1.85520       -1.08656
B          1.72870        2.57022       -0.43729
B          3.11620        1.73630       -0.16753
B          4.55609        0.87140        0.11325
B          4.36421        2.48130        0.76890
B          3.02574        3.32489        0.34097
B          1.66101        4.15035        0.35512
B          0.28925        3.43129       -0.50238
B          0.23147        4.70653        0.48901
B         -2.51933        3.30895        0.09583
B         -1.15258        4.14239        0.21041
B         -2.57830        1.76278       -0.57354
B         -3.90239        2.48908        0.25018
B         -3.98552        0.85919       -0.24567
B         -1.18257        2.61316       -0.70071
B         -1.09897       -2.51814       -0.44477
B          3.28505        0.03989       -0.63880
B         -1.15223        0.89266       -1.02896
B          4.47182       -2.48951        0.53735
B         -5.14863       -1.76869        0.67841
B         -5.25258       -0.05513        0.38625
B         -5.15221        1.64115        0.76417
B         -6.17418        0.67622        1.47432
B         -6.16770       -0.84269        1.43887
B          1.74097        0.88443       -0.82374
B         -2.60610       -0.01056       -0.75496
B          0.34118        0.03540       -1.14677
B          5.53047       -1.54603        1.09413
B          5.68300        0.00288        1.15601
B          5.45442        1.54738        1.24434
B          0.31886       -1.68136       -0.59657
