45
isomer_0479.log	Energy: -112590.2620990
B          2.58451       -1.69356        0.39808
B          2.57377       -3.33098        0.01554
B          1.16560       -4.16066       -0.22000
B         -0.28780       -3.32921        0.34030
B          1.12699       -0.80211        0.71407
B         -1.74716       -0.83174        0.81685
B         -1.68225       -4.11363       -0.34127
B          4.04270       -0.81935        0.31699
B         -1.67138       -2.43521        0.25331
B          3.98031       -2.51064       -0.14201
B         -0.25829       -4.77702       -0.49037
B         -3.11421       -3.26661       -0.34568
B         -3.13723       -1.64603        0.22340
B         -4.59991       -0.83248       -0.26317
B         -0.31249        1.72437        0.87853
B         -1.69882        2.42043        0.26180
B         -3.15565        1.61486        0.22911
B         -4.60906        0.78653       -0.26034
B         -4.45177        2.34552       -0.50384
B         -3.15095        3.23757       -0.33430
B         -1.72866        4.10069       -0.32690
B         -0.32542        3.32970        0.35195
B         -0.31229        4.78066       -0.47364
B          2.53594        3.36495        0.02726
B          1.11848        4.17948       -0.20541
B          2.56518        1.72642        0.40406
B          3.95165        2.56110       -0.13314
B          4.03316        0.86904        0.31994
B          1.13142        2.54232        0.57675
B          1.16006       -2.52620        0.56789
B         -3.22681       -0.11674        0.62321
B          1.11784        0.81746        0.71690
B         -4.42502       -2.38873       -0.51212
B          5.29694       -1.69754       -0.65260
B          5.28626       -0.06682       -0.41581
B          5.27738        1.76473       -0.64655
B          6.44442        0.81757       -1.25743
B          6.45320       -0.73513       -1.26015
B         -1.75646        0.81425        0.81973
B          1.69177       -0.07415        1.92513
B         -0.29300       -1.72569        0.87249
B         -5.93887       -1.68587       -0.71598
B         -6.14399        0.02635       -0.77682
B         -5.95603        1.75742       -0.78058
B          0.44597       -0.01532       -0.59515
