45
isomer_0048.log	Energy: -113446.2626828
B          2.32494        1.87245       -0.41690
B          2.30170        3.52664        0.04571
B          0.90701        4.28215        0.20247
B         -0.45811        3.44570       -0.37976
B          1.13707        1.00618       -1.11003
B         -1.82463        0.92570       -1.01696
B         -1.87383        4.09364        0.45053
B          3.61310        1.01967        0.00742
B         -1.89831        2.56157       -0.40170
B          3.58336        2.69276        0.27636
B         -0.49057        4.77048        0.53594
B         -3.17983        3.16796        0.46431
B         -3.19672        1.61491       -0.16474
B         -4.47000        0.62285        0.36173
B         -0.29004       -1.60328       -1.41966
B         -1.56333       -2.48269       -0.79243
B         -2.99398       -1.79221       -0.34537
B         -4.47712       -1.03066        0.02066
B         -4.10694       -2.66131        0.58335
B         -2.72949       -3.38796        0.08360
B         -1.25760       -3.98277        0.02865
B         -0.02599       -3.21253       -0.85229
B          0.23508       -4.28513        0.44090
B          2.79272       -3.29926        0.91940
B          1.65176       -4.27317        1.04958
B          2.47007       -1.76327       -0.34926
B          3.85882       -2.19503        0.64424
B          3.63539       -0.64833        0.18878
B          1.59772       -3.29738       -0.20946
B          1.00163        2.72772       -0.80190
B         -3.27699       -0.03950       -0.65390
B          1.21288       -0.57328       -1.20953
B         -4.46843        2.23906        0.91537
B          5.01361        1.90311        0.54406
B          5.06438        0.27446        0.11116
B          5.14739       -1.32210        0.76412
B          6.24578       -0.32021        1.13165
B          6.25276        1.13918        0.93664
B         -1.69384       -0.77532       -0.90415
B          1.28873       -2.15345       -1.30908
B         -0.45326        1.96074       -1.16626
B         -5.49444        1.24795        1.40551
B         -5.56694       -0.32306        1.29538
B         -5.22599       -1.81963        1.19565
B         -0.31951        0.14664       -1.09975
