45
isomer_0480.log	Energy: -113458.7538738
B         -2.56736       -1.60829       -0.43810
B         -2.52330       -3.31400        0.04763
B         -1.22628       -4.12622       -0.19065
B          0.23258       -3.33144       -0.94317
B         -1.21636       -0.74034       -0.83370
B          1.58151       -0.75437       -0.52006
B          1.55501       -4.14092        0.00738
B         -3.89300       -0.85351       -0.10250
B          1.40550       -2.41333       -0.04537
B         -3.80404       -2.45289        0.31209
B          0.18069       -4.71731       -0.07939
B          2.87176       -3.28617        0.30382
B          2.99963       -1.71958       -0.10881
B          4.46140       -0.86796        0.11003
B          0.32595        1.81906       -1.21075
B          1.70953        2.56954       -0.47608
B          3.08772        1.74659       -0.22412
B          4.35956        0.78781        0.39831
B          4.33413        2.46491        0.76496
B          3.01563        3.32259        0.26778
B          1.64768        4.15912        0.19847
B          0.27407        3.43700       -0.65419
B          0.22378        4.70755        0.31568
B         -2.53779        3.38307       -0.05467
B         -1.18925        4.14726        0.01952
B         -2.54875        1.66191       -0.63355
B         -3.79810        2.51478        0.20224
B         -3.90530        0.91300       -0.15218
B         -1.20115        2.57753       -0.74638
B         -1.08602       -2.40879       -0.26096
B          3.15064       -0.00032       -0.50113
B         -1.20246        0.93729       -1.06845
B          4.20637       -2.50224        0.76576
B         -5.11797       -1.60920        0.86964
B         -5.15189        0.03628        0.44980
B         -5.09212        1.69037        0.77296
B         -6.12602        0.79714        1.52203
B         -6.13209       -0.69963        1.55574
B          1.74892        0.92425       -0.98604
B          0.24779        0.00380       -1.24488
B          0.28935       -1.73478       -1.46020
B          5.31130       -1.56269        1.26629
B          5.57191       -0.04037        1.27339
B          5.42709        1.53656        1.27991
B          0.09972       -1.25307        0.23190
