45
isomer_0483.log	Energy: -113464.3925270
B         -2.56688        1.64475        0.64137
B         -2.58148        3.34169        0.07510
B         -1.21366        4.11680       -0.21383
B          0.24882        3.37963        0.30388
B         -1.17253        0.85146        0.83930
B          1.75576        0.91247        0.94662
B          1.60687        4.17982       -0.43979
B         -3.96460        0.88109        0.35759
B          1.70243        2.57485        0.39129
B         -3.90753        2.49309        0.04879
B          0.19540        4.72588       -0.55156
B          2.99203        3.32266       -0.41251
B          3.10107        1.77883        0.19944
B          4.48804        0.86190       -0.20498
B          0.23276       -1.68645        0.69240
B          1.69468       -2.48465        0.38538
B          3.13545       -1.65236        0.40527
B          4.58317       -0.77287        0.18051
B          4.42874       -2.39854       -0.42290
B          3.08814       -3.27357       -0.02608
B          1.74181       -4.11267       -0.12385
B          0.16399       -3.38532        0.60351
B          0.40427       -4.49887       -0.61005
B         -2.40316       -3.13970       -0.46218
B         -1.02658       -3.85406       -0.58952
B         -2.55162       -1.76357        0.57662
B         -3.79357       -2.35552       -0.45067
B         -3.94102       -0.89805        0.24553
B         -1.30368       -2.77811        1.08030
B         -1.21187        2.58116        0.61708
B          3.26664        0.10809        0.70929
B         -1.25242       -0.80326        0.76592
B          4.35519        2.51625       -0.76281
B         -5.24580        1.68393       -0.44824
B         -5.23541        0.02220       -0.16730
B         -5.18185       -1.57860       -0.72832
B         -6.26650       -0.63987       -1.29553
B         -6.29106        0.83278       -1.16762
B          1.68946       -0.74848        0.73757
B         -0.98147       -2.08599       -0.49182
B          0.30965        1.84997        0.98209
B          5.51225        1.59884       -1.17473
B          5.70687        0.06590       -1.07723
B          5.44940       -1.46151       -1.00309
B          0.23979        0.04796        1.03978
