45
isomer_0486.log	Energy: -113441.6868530
B         -1.32299        1.90919       -0.37322
B         -1.02562        3.51544       -0.78329
B          0.40393        4.20252       -0.47273
B          1.33999        3.49058        0.81949
B         -1.89927        0.43233        0.33205
B          1.56522        0.63406        0.78508
B          2.99384        3.72608        0.22429
B         -2.97005        1.54593       -0.35363
B          2.48400        2.23957        1.05017
B         -2.46971        2.96758       -1.13303
B          1.84383        4.60433       -0.22789
B          3.99802        2.51782        0.43011
B          3.33422        0.98305        0.42085
B          4.36472       -0.31358        0.21569
B         -0.23797       -2.13739        1.40121
B          0.70335       -2.66817        0.18634
B          1.98622       -1.95498       -0.50519
B          3.68116       -1.58295       -0.63532
B          3.13192       -3.03223       -1.35509
B          1.65455       -3.46648       -1.00977
B          0.17966       -4.07782       -0.87874
B         -0.76876       -3.45896        0.36918
B         -1.27072       -4.47672       -0.76152
B         -3.43532       -2.64362        0.42712
B         -2.43015       -3.75733       -0.03343
B         -2.69307       -1.08405        1.10697
B         -4.34433       -1.42972        0.34515
B         -3.62127        0.08385        0.30838
B         -2.05070       -2.75994        1.29759
B         -0.10832        2.73507        0.35021
B          2.66113       -0.58087        0.33149
B         -0.84683       -0.52774        1.21805
B          4.97432        1.31380       -0.00504
B         -3.97811        2.55325       -1.37976
B         -4.60883        1.24074       -0.45929
B         -5.28723       -0.29567       -0.19078
B         -6.04287        0.78364       -1.03391
B         -5.44766        2.05852       -1.57375
B          0.86909       -0.90728        0.57824
B         -1.56526       -1.53831        2.22137
B          0.89407        2.00635        1.44067
B          5.65303        0.13794       -0.65767
B          5.30380       -1.30291       -1.07318
B          4.57235       -2.55811       -1.53714
B         -0.16738        0.87319        0.57365
