45
isomer_0487.log	Energy: -113467.9465242
B         -2.07018        1.66050        0.28842
B         -1.73211        3.05488       -0.76502
B         -0.38316        3.90206       -0.71734
B          0.89694        3.35418        0.33958
B         -0.87518        1.30361        1.33884
B          1.88795        0.69598        0.91629
B          2.39849        3.81922       -0.36043
B         -3.64431        1.08661        0.22128
B          2.20511        2.36753        0.71112
B         -3.13326        2.30357       -0.90448
B          1.09704        4.41330       -0.83760
B          3.65896        2.87804       -0.02880
B          3.46800        1.33379        0.49455
B          4.71710        0.16642        0.25992
B         -0.14226       -1.52639        0.90438
B          1.05457       -2.31969       -0.00126
B          2.70790       -2.02465        0.18601
B          4.27442       -1.37850       -0.14142
B          3.81442       -2.90858       -0.79268
B          2.25792       -3.35920       -0.58529
B          0.71255       -3.85236       -0.65000
B         -0.43379       -2.49871       -0.82521
B         -0.72336       -4.21982       -0.40592
B         -3.06932       -2.49895        0.33591
B         -2.04414       -3.47333       -0.26777
B         -2.96153       -0.69803        0.57690
B         -4.38446       -1.71752        0.63992
B         -4.41899       -0.11606        1.02778
B         -1.66326       -1.67463       -0.05394
B         -0.72458        2.75835        0.47305
B          3.23020       -0.42839        0.77590
B         -1.39105       -0.10303        0.78083
B          4.85783        1.83524       -0.33608
B         -4.46990        1.68145       -1.30584
B         -5.23599        0.60810       -0.20481
B         -5.68114       -1.01015        0.10662
B         -6.47113       -0.17243       -0.93043
B         -5.84748        0.98592       -1.64412
B          1.53726       -0.90950        0.97591
B         -0.83217       -3.00484        0.86396
B          0.69762        1.94091        1.24471
B          5.74282        0.72387       -0.84605
B          5.66162       -0.81949       -0.96108
B          5.16315       -2.28418       -1.11639
B          0.29090        0.12487        1.22011
