45
isomer_0488.log	Energy: -113112.6685098
B          2.69683       -1.41477        0.45930
B          2.63543       -2.98491       -0.15253
B          1.37409       -3.92635        0.21119
B         -0.21918       -3.24024        0.90275
B          1.30713       -0.58879        0.86634
B         -1.85561       -0.89432        1.14694
B         -1.56391       -3.86849       -0.73705
B          4.05024       -0.56979        0.07908
B         -1.72381       -2.57463        0.29853
B          3.96362       -2.14430       -0.37276
B         -0.36622       -4.64863       -0.19576
B         -2.76084       -2.97465       -0.95092
B         -2.99288       -1.53366       -0.13529
B         -4.29937       -0.62028       -0.62973
B         -0.33037        1.61970        0.90933
B         -1.74528        2.44911        0.71020
B         -3.20622        1.75899        0.44510
B         -4.61596        0.89696       -0.03510
B         -4.40578        2.62525       -0.38242
B         -3.10525        3.36273        0.13250
B         -1.75272        4.21281        0.13906
B         -0.34335        3.33806        0.51975
B         -0.37192        4.82183       -0.03920
B          2.43214        3.39301       -0.12950
B          1.04678        4.15969       -0.01999
B          2.60379        1.74872        0.54007
B          3.77793        2.67300       -0.32311
B          4.01431        1.11548        0.14300
B          1.15062        2.51448        0.54711
B          1.28331       -2.20990        0.50122
B         -3.25554        0.01414        0.54746
B          1.21614        0.93363        0.97944
B         -4.12299       -2.12442       -1.35236
B          5.28521       -1.31879       -0.84400
B          5.37242        0.31348       -0.32829
B          5.16545        1.94741       -0.81422
B          6.23088        1.10974       -1.51896
B          6.28200       -0.37072       -1.53206
B         -1.72827        0.76579        0.91015
B          0.52275       -4.89867        0.89589
B         -0.11233       -1.42748        1.01971
B         -5.27482       -1.24754       -1.73412
B         -5.58555        0.26470       -1.40563
B         -5.45298        1.74617       -1.10177
B         -1.21994       -2.20356        1.83064
