45
isomer_0490.log	Energy: -113699.5656005
B          2.39325        1.98838       -0.65777
B          2.17311        3.51171        0.08662
B          0.76470        4.23092        0.15893
B         -0.59507        3.38335       -0.53240
B          1.08327        1.07664       -1.36589
B         -1.84658        0.73811       -1.08444
B         -2.01992        3.94033        0.30436
B          3.66886        1.06932        0.00971
B         -2.01695        2.42043       -0.54113
B          3.44597        2.70746        0.48424
B         -0.67218        4.65571        0.45281
B         -3.29746        2.94933        0.32875
B         -3.23144        1.35867       -0.28227
B         -4.41183        0.34702        0.39721
B         -0.25211       -1.65983       -1.67353
B         -1.26405       -2.56089       -0.62724
B         -2.77954       -2.02950       -0.25420
B         -4.16280       -1.33319        0.42908
B         -3.55572       -2.80821        1.07881
B         -2.18126       -3.42387        0.48142
B         -0.67112       -3.91192        0.22695
B          0.29395       -3.22279       -0.95354
B          0.89378       -3.89893        0.52701
B          3.20210       -2.30294        0.43014
B          2.33996       -3.50262        0.88588
B          2.60174       -1.47863       -1.17857
B          3.69841       -0.75074       -0.19164
B          2.46177        0.25622       -0.87759
B          1.96809       -2.96051       -0.53188
B          0.89945        2.69712       -0.80505
B         -3.19336       -0.33909       -0.59973
B          1.17006       -0.53560       -1.71834
B         -4.47135        1.98191        0.88985
B          4.50615        1.78079        1.27744
B          4.78466        0.12124        0.79783
B          4.43337       -1.52033        1.17892
B          5.24069       -0.72795        2.15779
B          5.19139        0.77370        2.23369
B         -1.69614       -1.02169       -1.23669
B          1.30935       -2.22021       -1.87343
B         -0.49530        1.83704       -1.17100
B         -5.34305        0.95140        1.55106
B         -5.22476       -0.61321        1.64460
B         -4.72913       -2.06560        1.73182
B         -0.41299        0.11149       -1.58864
