45
isomer_0491.log	Energy: -113257.5866510
B          2.06351        1.91722       -0.34924
B          1.84452        3.48847        0.30497
B          0.36028        4.19478        0.39106
B         -0.91973        3.45328       -0.50672
B          0.63099        1.12699       -0.89295
B         -1.83302        0.70120       -0.95556
B         -2.43520        3.89415        0.23205
B          3.58760        1.21161       -0.18552
B         -2.25961        2.42229       -0.73773
B          3.25426        2.72119        0.55418
B         -1.09802        4.58963        0.59213
B         -3.67221        2.90970        0.01610
B         -3.43186        1.32436       -0.44106
B         -4.64859        0.18477       -0.13313
B         -0.06226       -1.70786       -1.35436
B         -1.05353       -2.23102        0.41057
B         -2.62110       -2.00633       -0.11318
B         -4.19743       -1.38398        0.28193
B         -3.75719       -2.89048        0.92031
B         -2.25950       -3.44545        0.64017
B         -0.83796       -4.05142        0.47622
B          0.40652       -3.00347       -0.36143
B          0.57213       -4.52312        0.27139
B          2.91810       -2.91053       -0.36902
B          1.86395       -3.92400        0.00381
B          2.52929       -0.19117       -0.64583
B          4.25756       -1.97006       -0.09728
B          4.13010       -0.33547       -0.64749
B          1.61799       -1.91728       -1.07563
B          0.65818        2.74404       -0.55137
B         -3.12511       -0.38513       -0.63702
B          0.92724       -0.35003       -0.69304
B         -4.86770        1.85889        0.35537
B          4.51254        2.05046        1.10583
B          5.04744        0.52692        0.40630
B          5.42948       -1.12372        0.56542
B          6.18901       -0.11207        1.40365
B          5.70510        1.27755        1.70364
B         -1.46114       -0.96090       -0.92766
B          3.24426       -1.65524       -1.24628
B         -0.75746        1.90014       -1.19292
B         -5.75821        0.75695        0.88485
B         -5.62672       -0.78157        1.02947
B         -5.11061       -2.25318        1.24315
B          0.04414       -1.14112        0.32183
