45
isomer_0493.log	Energy: -112924.0271949
B         -2.59474       -1.51417       -0.63931
B         -2.59955       -3.18875       -0.15772
B         -1.25841       -3.98936        0.08403
B          0.19612       -3.25987       -0.47914
B         -1.25164       -0.70760       -1.00976
B          1.67689       -0.78357       -0.91403
B          1.54851       -4.05016        0.22725
B         -3.90976       -0.68171       -0.44969
B          1.61628       -2.41830       -0.36713
B         -3.86555       -2.31945        0.00759
B          0.11104       -4.57792        0.36194
B          2.94859       -3.24390        0.25827
B          3.04994       -1.65185       -0.27482
B          4.48990       -0.83017        0.23758
B          0.34456        1.77300       -0.94110
B          1.72091        2.45694       -0.29085
B          3.11060        1.64665       -0.24402
B          4.49848        0.78228        0.24199
B          4.44753        2.38964        0.56903
B          3.08708        3.24290        0.34491
B          1.74544        4.10450        0.34997
B          0.35195        3.37072       -0.36968
B          0.36562        4.69872        0.46261
B         -2.43223        3.40376       -0.05736
B         -1.06594        4.16523        0.17570
B         -2.49683        1.75604       -0.50272
B         -3.78547        2.57502        0.05646
B         -3.88283        1.00178       -0.41075
B         -1.10855        2.59514       -0.62706
B         -1.24829       -2.39669       -0.75160
B          3.17949       -0.05416       -0.64729
B         -1.08898        0.88969       -0.84204
B          4.39197       -2.45666        0.52493
B         -5.11767       -1.50623        0.55873
B         -5.08132        0.11511        0.30879
B         -5.06805        1.79139        0.55485
B         -6.13040        0.93122        1.18645
B         -6.18357       -0.57147        1.21549
B          1.71843        0.88436       -0.88438
B         -1.54725       -2.04934        1.63892
B          0.26675       -1.65277       -1.04319
B          5.67344       -1.61569        0.72669
B          5.86514       -0.03396        0.77966
B          5.70099        1.51283        0.79066
B         -0.38859       -0.53315        0.24111
