45
isomer_0496.log	Energy: -113675.8861134
B          2.56224       -1.73125        0.52970
B          2.51191       -3.30389       -0.03782
B          1.15469       -4.14936       -0.10966
B         -0.27020       -3.40288        0.53859
B          1.16948       -0.85073        1.06894
B         -1.71900       -0.84338        0.79131
B         -1.64355       -4.16937       -0.25838
B          3.98368       -0.84639        0.22453
B         -1.72583       -2.55123        0.43201
B          3.86857       -2.48561       -0.27635
B         -0.22185       -4.74813       -0.35339
B         -3.00960       -3.33912       -0.27930
B         -3.12984       -1.73250        0.22188
B         -4.54664       -0.89240       -0.14704
B         -0.36800        1.82555        1.11646
B         -1.80079        2.53291        0.48770
B         -3.17292        1.68109        0.26013
B         -4.53271        0.79946       -0.23564
B         -4.40581        2.44540       -0.74939
B         -3.09042        3.28134       -0.26646
B         -1.74620        4.14437       -0.24712
B         -0.34941        3.38505        0.51435
B         -0.33961        4.74598       -0.35244
B          2.42901        3.33401       -0.04014
B          1.04926        4.15706       -0.12342
B          2.51024        1.75943        0.48945
B          3.81107        2.53638       -0.29196
B          3.95695        0.90926        0.21604
B          1.12052        2.58968        0.76545
B          1.18464       -2.57771        0.78864
B         -3.29395       -0.01551        0.60963
B          1.13090        0.84859        1.04378
B         -4.32744       -2.49822       -0.77114
B          5.10372       -1.65325       -0.84581
B          5.19537        0.04299       -0.52319
B          5.06156        1.73737       -0.86406
B          6.08427        0.81232       -1.61327
B          6.10347       -0.70851       -1.60685
B         -1.78483        0.83054        0.90933
B          2.60967        0.01560        0.74610
B         -0.31381       -1.83110        1.08853
B         -5.37467       -1.56859       -1.33829
B         -5.61973       -0.03205       -1.30494
B         -5.47149        1.51967       -1.30229
B         -0.34291       -0.00288        1.09579
