45
isomer_0497.log	Energy: -112615.3360326
B         -2.46602       -1.68653       -0.55678
B         -2.43995       -3.36552       -0.11092
B         -1.06322       -4.15913        0.10559
B          0.37134       -3.36294       -0.41396
B         -1.13156       -0.86508       -0.95032
B          1.77647       -0.83606       -0.89427
B          1.75509       -4.11019        0.31675
B         -3.83142       -0.84798       -0.41678
B          1.74813       -2.45876       -0.31344
B         -3.75048       -2.52000        0.03307
B          0.34860       -4.70094        0.42094
B          3.11318       -3.25622        0.33598
B          3.16633       -1.66108       -0.22798
B          4.58673       -0.79624        0.28018
B          0.36388        1.75091       -0.98920
B          1.74313        2.45146       -0.32086
B          3.15543        1.66383       -0.24884
B          4.56080        0.82719        0.26134
B          4.47160        2.43835        0.57121
B          3.08724        3.26283        0.31810
B          1.72814        4.10728        0.30635
B          0.34988        3.35288       -0.41865
B          0.33012        4.69330        0.40785
B         -2.45296        3.35338       -0.10779
B         -1.09829        4.14304        0.10315
B         -2.48312        1.67971       -0.55407
B         -3.78806        2.48380        0.04670
B         -3.84674        0.86891       -0.40926
B         -1.08145        2.56653       -0.68713
B         -1.06798       -2.57667       -0.69172
B          3.26605       -0.05525       -0.62865
B         -1.13295        0.87035       -0.92371
B          4.51804       -2.42507        0.59164
B         -5.05798       -1.68610        0.53909
B         -5.04071       -0.05539        0.30597
B         -5.07528        1.64093        0.53885
B         -6.14958        0.76225        1.17191
B         -6.17562       -0.77419        1.19007
B          1.77950        0.86205       -0.89585
B         -3.25508        0.12219        1.26601
B          0.36945       -1.75056       -0.99017
B          5.79682       -1.54662        0.79526
B          5.94992        0.03997        0.82877
B          5.75073        1.59532        0.82018
B         -1.69813       -0.03993        0.19540
