45
isomer_0498.log	Energy: -113212.1271561
B         -2.53676        1.65646        0.40049
B         -2.51652        3.36166        0.02946
B         -1.14923        4.16942       -0.13017
B          0.32175        3.42550        0.40264
B         -1.08396        0.87466        0.65009
B          1.64407        0.81043        0.88099
B          1.71485        4.15985       -0.31149
B         -3.92828        0.88248        0.33547
B          1.72898        2.51285        0.33498
B         -3.87829        2.48979       -0.21736
B          0.31429        4.74356       -0.45398
B          3.09875        3.23993       -0.26983
B          3.13579        1.68492        0.23725
B          4.47196        0.78771       -0.19665
B          0.26466       -1.72089        0.59235
B          1.69112       -2.53669        0.13622
B          3.07347       -1.72997        0.18887
B          4.43395       -0.86230       -0.18991
B          4.47779       -2.52120       -0.62275
B          3.03433       -3.30182       -0.36155
B          1.59798       -4.19839       -0.33424
B          0.22461       -3.41160        0.29109
B          0.15921       -4.79236       -0.42006
B         -2.64114       -3.30162        0.11751
B         -1.28530       -4.14999       -0.05434
B         -2.59766       -1.56811        0.59064
B         -3.96146       -2.39746       -0.07473
B         -3.97969       -0.78537        0.39530
B         -1.29171       -2.59890        0.63050
B         -1.18915        2.63297        0.60471
B          3.14031       -0.02473        0.53865
B         -1.22821       -0.86710        1.06973
B          4.52139        2.47992       -0.50911
B         -5.13407        1.73050       -0.72733
B         -5.18490        0.05558       -0.40567
B         -5.21371       -1.61767       -0.61352
B         -6.31820       -0.67744       -1.25936
B         -6.27526        0.81461       -1.30965
B          1.64172       -0.85670        0.85708
B         -0.94990       -0.17850       -0.40489
B          0.36862        1.73168        0.88799
B          5.68860        1.54086       -0.85954
B          5.83087       -0.01800       -0.86574
B          5.63343       -1.58887       -0.91437
B          0.13090       -0.07964        1.33422
