45
isomer_0500.log	Energy: -112334.1400348
B         -2.58894       -1.63639       -0.38624
B         -2.59762       -3.27151        0.00606
B         -1.19937       -4.11658        0.24593
B          0.26360       -3.30596       -0.31997
B         -1.12101       -0.76436       -0.70819
B          1.75252       -0.82904       -0.81208
B          1.64891       -4.10295        0.36564
B         -4.03651       -0.74430       -0.30971
B          1.65783       -2.42810       -0.23894
B         -3.99414       -2.43344        0.15935
B          0.21718       -4.74834        0.51933
B          3.09091       -3.27313        0.36436
B          3.13304       -1.65638       -0.21440
B          4.60562       -0.85752        0.26665
B          0.34854        1.74367       -0.88838
B          1.74343        2.42673       -0.27643
B          3.19052        1.60397       -0.23958
B          4.63416        0.76122        0.25415
B          4.49568        2.32341        0.48841
B          3.20556        3.22995        0.31413
B          1.79371        4.10999        0.30221
B          0.38098        3.35184       -0.37139
B          0.38565        4.80774        0.44553
B         -2.47959        3.42330       -0.04564
B         -1.05235        4.22217        0.18153
B         -2.52865        1.78302       -0.41265
B         -3.90474        2.63744        0.12018
B         -4.00675        0.94380       -0.32275
B         -1.08531        2.58064       -0.59085
B         -1.17466       -2.48704       -0.55171
B          3.24073       -0.13068       -0.62337
B         -1.09246        0.85493       -0.72070
B          4.41222       -2.41005        0.52497
B         -5.30068       -1.60160        0.66566
B         -5.27059        0.02743        0.41914
B         -5.23965        1.86009        0.63893
B         -6.41764        0.93064        1.25597
B         -6.44501       -0.62179        1.26796
B          1.78154        0.81668       -0.82479
B         -2.55057       -1.23867       -1.24941
B          0.28773       -1.70582       -0.86173
B          5.93450       -1.72418        0.72396
B          6.16015       -0.01421        0.77448
B          5.99293        1.71899        0.76798
B         -0.27139       -0.05559       -0.10356
