45
isomer_0501.log	Energy: -112231.3217938
B         -2.62853       -1.60671       -0.43997
B         -2.62568       -3.24561       -0.06367
B         -1.22181       -4.08096        0.17743
B          0.23784       -3.25230       -0.37063
B         -1.16608       -0.71900       -0.74347
B          1.70854       -0.75799       -0.82851
B          1.62538       -4.04404        0.31656
B         -4.08425       -0.72788       -0.36458
B          1.62385       -2.36333       -0.27161
B         -4.03040       -2.42111        0.08829
B          0.19829       -4.70317        0.45426
B          3.06012       -3.20190        0.33313
B          3.09213       -1.57925       -0.22957
B          4.55449       -0.77253        0.26921
B          0.28289        1.80320       -0.88926
B          1.66769        2.49219       -0.26127
B          3.12157        1.68156       -0.22262
B          4.56911        0.84645        0.27265
B          4.41555        2.40502        0.52117
B          3.11883        3.30211        0.34698
B          1.69953        4.17007        0.33406
B          0.29795        3.40645       -0.35645
B          0.28456        4.85427        0.47462
B         -2.56524        3.45015       -0.04941
B         -1.14652        4.25898        0.19520
B         -2.59766        1.81318       -0.43268
B         -3.98462        2.65050        0.09910
B         -4.06901        0.96046       -0.36098
B         -1.16011        2.62487       -0.59332
B         -1.20587       -2.44352       -0.60413
B          3.18935       -0.04875       -0.62293
B         -1.15146        0.90052       -0.74002
B          4.37281       -2.32911        0.51108
B         -5.34745       -1.60552        0.59382
B         -5.32980        0.02605        0.36337
B         -5.31619        1.85667        0.60120
B         -6.49020        0.91114        1.20117
B         -6.50422       -0.64151        1.19786
B          1.72340        0.88797       -0.82500
B         -0.33315       -2.88154        0.46620
B          0.25175       -1.64678       -0.89662
B          5.88773       -1.63218        0.72704
B          6.09823        0.07909        0.79573
B          5.91608        1.81077        0.80498
B         -0.03940       -0.48695       -0.97842
