45
isomer_0502.log	Energy: -113463.5551966
B         -2.51440       -1.62312       -0.61359
B         -2.44709       -3.10732        0.27857
B         -1.03396       -3.98175        0.21125
B          0.33308       -3.30467       -0.52011
B         -1.04122       -0.73481       -0.99493
B          1.80701       -0.77685       -0.75783
B          1.75902       -4.09296        0.15408
B         -3.98329       -0.71815       -0.51309
B          1.83166       -2.48323       -0.52663
B         -3.98028       -2.33463       -0.44590
B          0.33781       -4.62461        0.40214
B          3.14216       -3.31170        0.08339
B          3.31447       -1.71714       -0.42399
B          4.72318       -0.90756       -0.12478
B          0.42989        1.76171       -0.97733
B          1.84250        2.50032       -0.33066
B          3.21661        1.65298       -0.11433
B          4.65769        0.76895        0.18147
B          4.52800        2.40182        0.74639
B          3.17299        3.21742        0.40041
B          1.77536        4.09717        0.39994
B          0.43308        3.38561       -0.38677
B          0.38752        4.73942        0.46309
B         -2.39958        3.42348       -0.14461
B         -1.00781        4.19385        0.10863
B         -2.46510        1.82531       -0.60570
B         -3.78698        2.62607        0.07368
B         -3.94673        1.01391       -0.45950
B         -1.02938        2.63968       -0.73676
B         -1.02796       -2.39070       -0.50569
B          3.31493        0.00808       -0.62203
B         -0.99225        0.90662       -0.99308
B          4.50988       -2.50358        0.50904
B         -4.93371       -1.58422        0.88465
B         -5.00192        0.13438        0.51844
B         -5.02328        1.83056        0.68185
B         -6.08255        0.89221        1.40259
B         -6.05216       -0.60765        1.47488
B          1.79972        0.82368       -0.78801
B         -3.59057       -2.42630        1.07931
B          0.39722       -1.60084       -0.88862
B          5.54432       -1.56816        1.10663
B          5.85335       -0.05509        1.08136
B          5.70244        1.48138        1.14349
B         -2.47366        0.13043       -0.91133
