45
isomer_0503.log	Energy: -113675.8863085
B         -2.50845        1.75995        0.48759
B         -2.42672        3.33521       -0.03988
B         -1.04658        4.15738       -0.12275
B          0.35192        3.38442        0.51404
B         -1.12926        0.84872        1.04089
B          1.78762        0.83039        0.91265
B          1.74925        4.14407       -0.24573
B         -3.95606        0.91114        0.21563
B          1.80288        2.53247        0.48905
B         -3.80926        2.53777       -0.29282
B          0.34287        4.74581       -0.35162
B          3.09295        3.28013       -0.26596
B          3.17408        1.67999        0.26084
B          4.53195        0.79679       -0.23863
B          0.31231       -1.83060        1.08673
B          1.72375       -2.55164        0.42996
B          3.12853       -1.73381        0.22030
B          4.54715       -0.89507       -0.14382
B          4.32575       -2.50033       -0.77033
B          3.00793       -3.34137       -0.27864
B          1.64095       -4.17011       -0.25853
B          0.26824       -3.40308        0.53917
B          0.21857       -4.74809       -0.35286
B         -2.51459       -3.30366       -0.03681
B         -1.15790       -4.14924       -0.10861
B         -2.56377       -1.73046        0.53091
B         -3.87021       -2.48443       -0.27595
B         -3.98444       -0.84479        0.22479
B         -1.18652       -2.57747        0.78872
B         -1.11863        2.58994        0.76459
B          3.29368       -0.01634        0.60948
B         -1.17049       -0.85085        1.06790
B          4.40763        2.44394       -0.74919
B         -5.06051        1.73971       -0.86445
B         -5.19571        0.04541       -0.52253
B         -5.10513       -1.65077       -0.84488
B         -6.10568       -0.70547       -1.60495
B         -6.08480        0.81526       -1.61228
B          1.71722       -0.84341        0.78556
B         -2.60971        0.01638        0.74601
B          0.36989        1.82490        1.11723
B          5.47426        1.51799       -1.30089
B          5.62003       -0.03394       -1.30445
B          5.37201       -1.56989       -1.33826
B          0.34300       -0.00296        1.09278
