45
isomer_0504.log	Energy: -111770.3885688
B          2.60210       -1.64744        0.33741
B          2.60081       -3.28009       -0.06511
B          1.19739       -4.11545       -0.30882
B         -0.26024       -3.29983        0.26366
B          1.13963       -0.76886        0.66634
B         -1.73412       -0.81737        0.77279
B         -1.65088       -4.08439       -0.42550
B          4.05481       -0.76338        0.26498
B         -1.64938       -2.41333        0.18956
B          4.00207       -2.44928       -0.21460
B         -0.22311       -4.73717       -0.58470
B         -3.08798       -3.24617       -0.41753
B         -3.12007       -1.63285        0.17137
B         -4.58842       -0.82238       -0.30316
B         -0.31501        1.74655        0.86372
B         -1.70648        2.44159        0.25751
B         -3.15841        1.62756        0.21700
B         -4.60745        0.79639       -0.28050
B         -4.46005        2.35917       -0.50513
B         -3.16446        3.25703       -0.32651
B         -1.74747        4.12870       -0.31054
B         -0.33854        3.35809        0.35684
B         -0.33549        4.81908       -0.45095
B          2.52207        3.41484        0.02859
B          1.09932        4.22345       -0.19210
B          2.56189        1.77203        0.38527
B          3.94243        2.62170       -0.14362
B          4.03495        0.92475        0.28861
B          1.12343        2.57695        0.56995
B          1.18303       -2.49081        0.49902
B         -3.21840       -0.10913        0.58998
B          1.12059        0.85046        0.68900
B         -4.40438       -2.37437       -0.57138
B          5.31295       -1.62195       -0.71705
B          5.29266        0.00566       -0.46031
B          5.27224        1.83981       -0.66860
B          6.44415        0.90736       -1.29266
B          6.46241       -0.64510       -1.31439
B         -1.75348        0.82838        0.79582
B          1.30190       -1.08956        2.76607
B         -0.27444       -1.70300        0.81544
B         -5.92280       -1.67837       -0.76450
B         -6.13847        0.03318       -0.80409
B         -5.96110        1.76529       -0.78692
B          0.54981       -0.50776        0.11973
