45
isomer_0509.log	Energy: -111996.9811782
B         -2.59458        1.74049        0.37912
B         -2.57807        3.37778       -0.00252
B         -1.16840        4.20006       -0.24346
B          0.28216        3.36155        0.30558
B         -1.14550        0.85624        0.68607
B          1.72985        0.84865        0.77580
B          1.67708        4.13563       -0.37921
B         -4.05288        0.86943        0.30600
B          1.66287        2.45911        0.21165
B         -3.98248        2.55750       -0.15132
B          0.25499        4.80024       -0.51962
B          3.10156        3.27908       -0.39093
B          3.12100        1.65768        0.17483
B          4.57636        0.83007       -0.31552
B          0.29944       -1.69162        0.84459
B          1.66643       -2.41314        0.22143
B          3.12228       -1.61489        0.18312
B          4.57519       -0.79322       -0.31069
B          4.41305       -2.35545       -0.55653
B          3.10005       -3.23983       -0.37896
B          1.67732       -4.09305       -0.36209
B          0.28376       -3.31603        0.32104
B          0.25685       -4.75902       -0.49586
B         -2.58000       -3.33175        0.01400
B         -1.16870       -4.15757       -0.22241
B         -2.60957       -1.67932        0.37854
B         -3.99196       -2.51273       -0.13980
B         -4.05645       -0.82224        0.30914
B         -1.16864       -2.52552        0.55070
B         -1.16803        2.56903        0.54081
B          3.20454        0.11927        0.57507
B         -1.14673       -0.73260        0.69522
B          4.41582        2.39317       -0.56791
B         -5.30488        1.74956       -0.65337
B         -5.30304        0.11752       -0.41555
B         -5.30821       -1.70692       -0.64208
B         -6.46577       -0.75515       -1.24258
B         -6.46806        0.79098       -1.25007
B          1.73177       -0.80164        0.78007
B         -1.08002       -1.33962        0.30022
B          0.28095        1.75915        0.83354
B          5.90674        1.66484       -0.77179
B          6.09830       -0.03830       -0.83097
B          5.90289       -1.75183       -0.83336
B          0.00073        0.29440        2.29008
