45
isomer_0051.log	Energy: -113458.7563650
B          2.56703       -1.60879        0.43779
B          2.52302       -3.31414       -0.04782
B          1.22600       -4.12646        0.19091
B         -0.23264       -3.33186        0.94404
B          1.21687       -0.73985        0.83355
B         -1.58183       -0.75413        0.51909
B         -1.55514       -4.14098       -0.00666
B          3.89214       -0.85324        0.10127
B         -1.40489       -2.41343        0.04602
B          3.80368       -2.45287       -0.31303
B         -0.18080       -4.71751        0.08005
B         -2.87138       -3.28614       -0.30389
B         -2.99921       -1.71946        0.10809
B         -4.46113       -0.86819       -0.11033
B         -0.32598        1.81899        1.21115
B         -1.70955        2.56968        0.47620
B         -3.08745        1.74640        0.22368
B         -4.36015        0.78800       -0.39795
B         -4.33445        2.46512       -0.76471
B         -3.01546        3.32235       -0.26832
B         -1.64743        4.15881       -0.19912
B         -0.27396        3.43676        0.65392
B         -0.22376        4.70779       -0.31505
B          2.53795        3.38288        0.05467
B          1.18933        4.14702       -0.01981
B          2.54876        1.66148        0.63374
B          3.79828        2.51465       -0.20186
B          3.90539        0.91291        0.15219
B          1.20149        2.57758        0.74684
B          1.08554       -2.40898        0.26149
B         -3.15069        0.00011        0.50076
B          1.20224        0.93734        1.06914
B         -4.20610       -2.50207       -0.76627
B          5.11743       -1.60915       -0.87050
B          5.15185        0.03605       -0.45005
B          5.09271        1.69034       -0.77216
B          6.12666        0.79731       -1.52120
B          6.13161       -0.69943       -1.55636
B         -1.74856        0.92417        0.98628
B         -0.24763        0.00384        1.24510
B         -0.28937       -1.73481        1.46020
B         -5.31118       -1.56254       -1.26695
B         -5.57217       -0.04022       -1.27319
B         -5.42784        1.53682       -1.27912
B         -0.09923       -1.25217       -0.23180
