45
isomer_0511.log	Energy: -112915.1437636
B         -2.60757       -1.53987       -0.54362
B         -2.62743       -3.18691       -0.17220
B         -1.26477       -4.01590        0.01812
B          0.19855       -3.22228       -0.48791
B         -1.15588       -0.70399       -0.84967
B          1.68683       -0.75227       -0.89922
B          1.55990       -4.02332        0.20863
B         -4.00815       -0.67753       -0.43284
B          1.59426       -2.36092       -0.36354
B         -3.97326       -2.34303       -0.00620
B          0.12348       -4.62707        0.32743
B          2.98879       -3.21236        0.24681
B          3.05569       -1.59636       -0.29601
B          4.52399       -0.79633        0.21439
B          0.31586        1.78199       -0.92164
B          1.69620        2.47061       -0.28236
B          3.12065        1.65886       -0.25231
B          4.54487        0.81007        0.22968
B          4.43356        2.37688        0.51735
B          3.11891        3.26754        0.33824
B          1.73233        4.12775        0.33853
B          0.33633        3.38081       -0.36286
B          0.33437        4.77650        0.47503
B         -2.48666        3.42039       -0.05083
B         -1.08523        4.20826        0.19411
B         -2.54058        1.79484       -0.46465
B         -3.88148        2.62564        0.07506
B         -3.97772        0.99439       -0.39987
B         -1.12048        2.60194       -0.61163
B         -1.23050       -2.39585       -0.72053
B          3.17579       -0.04643       -0.66950
B         -1.11887        0.87256       -0.79312
B          4.35325       -2.37191        0.45933
B         -5.26210       -1.53776        0.52154
B         -5.22577        0.08315        0.30089
B         -5.19816        1.84809        0.55959
B         -6.33473        0.94327        1.14690
B         -6.38127       -0.58492        1.14398
B          1.72285        0.88861       -0.86989
B         -0.55591       -2.79037        1.47161
B          0.23780       -1.61704       -0.99877
B          5.79246       -1.62935        0.66974
B          6.00713        0.02173        0.74344
B          5.84032        1.67671        0.76542
B         -0.45764       -0.59884        0.48335
