45
isomer_0512.log	Energy: -113363.5674211
B         -2.59787        1.74043        0.70431
B         -2.53084        3.34263        0.00184
B         -1.14172        4.12758       -0.17998
B          0.27632        3.42971        0.50765
B         -1.24885        0.90448        1.13654
B          1.70568        0.94642        0.92115
B          1.64444        4.11099       -0.40870
B         -3.98046        0.95124        0.34188
B          1.76173        2.59950        0.45000
B         -3.82622        2.52453       -0.14511
B          0.24242        4.66331       -0.53670
B          3.02520        3.28070       -0.40251
B          3.16063        1.76891        0.31757
B          4.53556        0.87770       -0.15591
B          0.20824       -1.60432        0.77585
B          1.69982       -2.46146        0.41854
B          3.12936       -1.62858        0.39467
B          4.53244       -0.82735       -0.05405
B          4.40906       -2.43917       -0.56874
B          3.02260       -3.24435       -0.14105
B          1.63266       -4.03418       -0.16456
B          0.16725       -3.28124        0.55056
B          0.18829       -4.58024       -0.42438
B         -2.45366       -3.12972       -0.26472
B         -1.23597       -4.18959       -0.16476
B         -2.64402       -1.67698        0.76288
B         -3.82944       -2.31459       -0.29181
B         -3.97555       -0.82930        0.31980
B         -1.27350       -2.44482        1.00347
B         -1.18126        2.58233        0.66084
B          3.24198        0.05498        0.60029
B         -1.31222       -0.69296        1.00120
B          4.35259        2.44092       -0.82956
B         -5.15969        1.71921       -0.68309
B         -5.04718        0.08737       -0.46315
B         -5.15676       -1.55808       -0.79741
B         -6.11538       -0.64656       -1.53847
B         -6.13277        0.84010       -1.47652
B          1.63923       -0.72194        0.83031
B         -0.85751       -2.57576       -0.66305
B          0.29960        1.86100        1.07178
B          5.42860        1.49463       -1.34390
B          5.66118       -0.02522       -1.19968
B          5.50329       -1.57609       -1.11483
B          0.23272        0.13382        1.24150
