45
isomer_0513.log	Energy: -112451.5118344
B         -2.57705        1.73971        0.41676
B         -2.55816        3.37806        0.03855
B         -1.14600        4.20040       -0.19890
B          0.30429        3.35924        0.35495
B         -1.12370        0.83919        0.72613
B          1.75086        0.85230        0.82061
B          1.70117        4.13758       -0.32859
B         -4.04040        0.87398        0.33760
B          1.68253        2.45767        0.26155
B         -3.96977        2.56610       -0.11708
B          0.28056        4.80941       -0.47178
B          3.12829        3.28249       -0.33943
B          3.14379        1.66030        0.22528
B          4.60043        0.83979       -0.26771
B          0.30193       -1.69582        0.87969
B          1.68250       -2.39806        0.25708
B          3.14377       -1.60064        0.22227
B          4.60042       -0.77924       -0.26921
B          4.43359       -2.33666       -0.51639
B          3.12825       -3.22179       -0.34543
B          1.70112       -4.07688       -0.33617
B          0.30424       -3.29978        0.34881
B          0.28050       -4.74843       -0.48059
B         -2.55820       -3.31798        0.03238
B         -1.14605       -4.13990       -0.20659
B         -2.57707       -1.68033        0.41361
B         -3.96980       -2.50572       -0.12176
B         -4.04042       -0.81444        0.33605
B         -1.14747       -2.50478        0.57996
B         -1.14743        2.56383        0.58463
B          3.22587        0.12946        0.62076
B         -1.12371       -0.78040        0.72464
B          4.43362        2.39767       -0.51202
B         -5.29246        1.76184       -0.62599
B         -5.29032        0.13045       -0.39356
B         -5.29248       -1.70050       -0.62918
B         -6.45591       -0.74513       -1.23414
B         -6.45590        0.80759       -1.23271
B          1.75085       -0.79372        0.81910
B         -1.16730       -0.58193        1.91869
B          0.30195        1.75430        0.88287
B          5.94288        1.68681       -0.72216
B          6.13812       -0.02637       -0.78814
B          5.94035       -1.75634       -0.79595
B         -0.82227       -0.72336       -0.86847
