45
isomer_0514.log	Energy: -112743.9437318
B         -2.57507        1.76153        0.39885
B         -2.53474        3.38361       -0.00012
B         -1.13470        4.21580       -0.23992
B          0.29923        3.39551        0.31639
B         -1.13104        0.91710        0.72284
B          1.74989        0.86154        0.81027
B          1.69066        4.14647       -0.37351
B         -3.99766        0.87620        0.31798
B          1.69208        2.48564        0.23223
B         -3.92556        2.54058       -0.13983
B          0.27791        4.78292       -0.51107
B          3.10500        3.29001       -0.37905
B          3.13367        1.67804        0.19360
B          4.58248        0.82976       -0.28515
B          0.31090       -1.71368        0.88706
B          1.69804       -2.43917        0.27308
B          3.13389       -1.63394        0.23502
B          4.57113       -0.80659       -0.25687
B          4.43744       -2.38146       -0.51024
B          3.09999       -3.25847       -0.31704
B          1.69399       -4.11654       -0.29968
B          0.30659       -3.35378        0.36958
B          0.29568       -4.76134       -0.42778
B         -2.53728       -3.34549        0.03686
B         -1.12136       -4.19013       -0.17409
B         -2.59204       -1.69536        0.40202
B         -3.95823       -2.48489       -0.12713
B         -4.01028       -0.83972        0.32619
B         -1.14013       -2.57748        0.59148
B         -1.14749        2.62246        0.54990
B          3.21866        0.11013        0.60768
B         -1.12068       -0.76980        0.75379
B          4.45317        2.41496       -0.56436
B         -5.23209        1.72447       -0.63936
B         -5.23057        0.09411       -0.39217
B         -5.23847       -1.69289       -0.61413
B         -6.35525       -0.75835       -1.21437
B         -6.37171        0.75536       -1.23678
B          1.75339       -0.80892        0.82434
B         -1.08955       -1.45970       -0.54230
B          0.30111        1.79990        0.86678
B          5.87178        1.61845       -0.74164
B          6.03779       -0.03579       -0.77541
B          5.85157       -1.68451       -0.76581
B         -1.12215        0.50340        1.81188
