45
isomer_0515.log	Energy: -113362.8833674
B          2.50534       -1.75384        0.54003
B          2.33865       -3.03847       -0.49722
B          0.91950       -3.43874       -1.07108
B         -0.38625       -3.42346       -0.00764
B          1.22659       -0.80679        0.98327
B         -1.69360       -0.71230        0.80500
B         -1.85614       -3.41323       -0.93437
B          3.93916       -0.93305        0.25262
B         -1.74396       -2.64780        0.78284
B          3.72336       -2.38735       -0.43924
B         -0.46708       -3.59988       -1.59729
B         -3.19324       -3.12802       -0.25114
B         -3.09447       -1.65520        0.32222
B         -4.59966       -0.67540        0.21162
B         -0.18504        1.83132        0.97660
B         -1.59064        2.59320        0.38374
B         -3.02810        1.84846        0.19085
B         -4.37238        0.90947       -0.26985
B         -4.31799        2.57754       -0.68964
B         -2.85973        3.33873       -0.43804
B         -1.44670        4.13003       -0.49423
B         -0.10559        3.36633        0.32288
B         -0.01524        4.63155       -0.65549
B          2.71927        3.19454       -0.11378
B          1.37000        4.01685       -0.35152
B          2.69454        1.57702        0.48922
B          4.08487        2.36471       -0.11834
B          4.03556        0.73641        0.19710
B          1.34538        2.49116        0.50006
B          1.07297       -2.68715        0.72076
B         -3.17555        0.10057        0.57483
B          1.29243        0.79413        0.91304
B         -4.55343       -2.30085       -0.38378
B          5.23174       -1.70113       -0.57961
B          5.40909       -0.14511        0.03573
B          5.41599        1.53433       -0.44377
B          6.45257        0.56315       -1.03521
B          6.44758       -0.92143       -1.02774
B         -1.66856        0.94276        0.92176
B         -0.21531        0.04324        1.05452
B         -0.32749       -1.62636        1.23391
B         -5.66568       -1.34623       -0.78378
B         -5.81264        0.18018       -0.84862
B         -5.54348        1.72921       -0.96569
B         -0.30665       -3.15310        1.58444
