45
isomer_0519.log	Energy: -113630.7491778
B          2.45122        1.80329       -0.34273
B          2.40180        3.41472       -0.00677
B          0.96442        4.20986        0.02167
B         -0.43589        3.39473       -0.58245
B          1.08696        0.84956       -0.81738
B         -1.81412        0.89670       -0.80406
B         -1.86852        4.14847        0.19026
B          3.84927        0.94952        0.04917
B         -1.93425        2.56735       -0.54685
B          3.81667        2.61648        0.31074
B         -0.47328        4.75668        0.26132
B         -3.21056        3.26483        0.31151
B         -3.23960        1.66911       -0.20414
B         -4.62930        0.72847        0.16732
B         -0.31031       -1.68790       -0.83638
B         -1.68474       -2.63315       -0.48234
B         -3.10386       -1.81789       -0.17777
B         -4.55255       -0.98335        0.13376
B         -4.36555       -2.60684        0.67420
B         -2.96879       -3.39710        0.25390
B         -1.50657       -4.15993        0.25050
B         -0.18797       -3.38183       -0.56028
B         -0.06157       -4.68816        0.37435
B          2.67114       -3.33455       -0.05377
B          1.31354       -4.15053        0.01289
B          2.65631       -1.70043       -0.48696
B          4.01383       -2.49506        0.18590
B          3.96364       -0.79266       -0.06207
B          1.15480       -0.90706       -0.78359
B          1.07378        2.62295       -0.68045
B         -3.26395       -0.04648       -0.50731
B          2.50662        0.04073       -0.46711
B         -4.53298        2.36557        0.72580
B          5.12461        1.82238        0.80313
B          5.29418        0.13123        0.37036
B          5.29403       -1.61196        0.63979
B          6.35130       -0.63140        1.29862
B          6.27330        0.88690        1.37992
B         -1.79092       -0.84348       -0.74439
B          1.29106       -2.56384       -0.76703
B         -0.41001        1.77214       -1.03541
B         -5.61109        1.39931        1.21915
B         -5.72712       -0.17171        1.16574
B         -5.50073       -1.71441        1.17968
B         -0.36827        0.00874       -1.03039
