45
isomer_0052.log	Energy: -112438.2315352
B          2.69323       -1.52921        0.39176
B          2.67312       -3.25621       -0.01597
B          1.30509       -4.28738       -0.36891
B         -0.44201       -3.29700        0.28453
B          1.28363       -0.61653        0.69562
B         -1.78848       -0.74287        0.78553
B         -1.80385       -4.05610       -0.40500
B          4.06781       -0.69987        0.31888
B         -1.79383       -2.38877        0.19140
B          4.01126       -2.36949       -0.13647
B         -0.27494       -4.79013       -0.56363
B         -3.19616       -3.18969       -0.41072
B         -3.19819       -1.56227        0.16794
B         -4.62166       -0.68958       -0.30078
B         -0.23410        1.79075        0.87601
B         -1.63237        2.50671        0.25844
B         -3.10798        1.73162        0.20941
B         -4.58399        0.92819       -0.28405
B         -4.39730        2.50800       -0.53579
B         -3.04150        3.33600       -0.33691
B         -1.60531        4.16495       -0.32161
B         -0.22914        3.39877        0.34682
B         -0.20343        4.78359       -0.45547
B          2.60396        3.40519        0.01796
B          1.20459        4.20468       -0.20157
B          2.63968        1.77284        0.40083
B          3.99388        2.58787       -0.13787
B          4.06259        0.95782        0.31627
B          1.23733        2.59232        0.56964
B          1.31835       -2.35010        0.56785
B         -3.23558        0.01461        0.58671
B          1.21893        0.89421        0.71501
B         -4.53431       -2.27613       -0.58722
B          5.29975       -1.58343       -0.64709
B          5.28788        0.04721       -0.41042
B          5.27742        1.81391       -0.63736
B          6.39958        0.88781       -1.23123
B          6.43212       -0.62448       -1.25161
B         -1.73562        0.90578        0.80428
B          0.51056       -3.32732        0.35908
B         -0.34438       -1.62973        0.85679
B         -5.92174       -1.45117       -0.75795
B         -6.05339        0.21171       -0.79325
B         -5.83878        1.81686       -0.78578
B          0.29729       -0.54392        1.85592
