45
isomer_0520.log	Energy: -113020.2509138
B         -2.59304        1.49529        0.66567
B         -2.45003        3.13222        0.15314
B         -1.19627        3.99862        0.03911
B          0.27993        3.31942        0.51872
B         -1.02390        0.71845        1.13687
B          1.75053        0.84681        1.02976
B          1.58112        4.08772       -0.28170
B         -3.99126        0.84109        0.33367
B          1.73735        2.48277        0.47108
B         -3.84355        2.36773       -0.09481
B          0.17629        4.67432       -0.28521
B          2.98808        3.26335       -0.29744
B          3.16854        1.75240        0.21340
B          4.47197        0.89323       -0.34130
B          0.50249       -1.57926        1.17286
B          1.81923       -2.40952        0.39089
B          3.22203       -1.63443        0.21941
B          4.60615       -0.78085       -0.19980
B          4.46115       -2.38760       -0.83996
B          3.04443       -3.10715       -0.45385
B          1.59731       -3.87420       -0.40465
B          0.28894       -3.28369        0.65911
B          0.20935       -4.36488       -0.58503
B         -2.47855       -2.99837       -0.29606
B         -1.13536       -3.83626       -0.29474
B         -2.70579       -1.53827        0.52815
B         -3.88302       -2.27143       -0.59766
B         -4.06109       -0.76210        0.14833
B         -1.32931       -2.50633        0.81882
B         -1.16776        2.37505        0.84917
B          3.30265        0.03170        0.53050
B         -0.98008       -0.82022        1.39856
B          4.44713        2.57219       -0.66395
B         -5.16367        1.82918       -0.72006
B         -5.27519        0.10968       -0.54283
B         -5.10922       -1.48729       -1.08116
B         -6.10798       -0.42829       -1.80002
B         -6.13134        1.03520       -1.58681
B          1.84024       -0.73464        0.89826
B         -1.50641       -0.71123       -0.00678
B          0.38316        1.66836        1.11848
B          5.53047        1.67540       -1.26823
B          5.68644        0.13972       -1.33240
B          5.42979       -1.39143       -1.44325
B         -0.39195       -2.40245        2.12376
