45
isomer_0521.log	Energy: -113384.0184153
B          2.53368       -1.70024        0.27692
B          2.43027       -3.29289       -0.29216
B          1.11045       -4.12901       -0.04945
B         -0.29050       -3.36265        0.99007
B          1.19046       -0.91434        1.28571
B         -1.77130       -0.75019        0.66513
B         -1.68066       -4.07397       -0.01006
B          3.80786       -0.82207       -0.19069
B         -1.76382       -2.44446        0.34597
B          3.71758       -2.39352       -0.73177
B         -0.29752       -4.64563       -0.05569
B         -3.04290       -3.25577       -0.26644
B         -3.20789       -1.63391        0.15921
B         -4.59317       -0.81304       -0.23532
B         -0.37221        1.69076        1.15557
B         -1.75427        2.53163        0.52582
B         -3.10105        1.73819        0.08261
B         -4.47588        0.87136       -0.46525
B         -4.31295        2.54963       -0.88312
B         -3.02277        3.33588       -0.28180
B         -1.65890        4.18400       -0.05639
B         -0.33875        3.38733        0.73623
B         -0.26710        4.81950        0.01030
B          2.44606        3.34279        0.26194
B          1.10422        4.19578        0.26053
B          2.49515        1.72232        0.66840
B          3.79913        2.57601       -0.10289
B          3.83247        0.90381       -0.00070
B          1.09853        2.52127        0.93007
B          1.31803       -2.66949        0.76327
B         -3.25914        0.08012        0.44923
B          1.08310        0.79226        1.19532
B         -4.34408       -2.40896       -0.85148
B          5.01336       -1.55649       -1.22061
B          5.13455        0.09290       -0.67834
B          5.00044        1.81201       -0.83758
B          5.99639        0.93707       -1.73034
B          6.05732       -0.57190       -1.82794
B         -1.74401        0.84791        0.82162
B          2.45080       -0.00548        0.62304
B         -0.51495       -1.54999        1.05510
B         -5.29770       -1.44067       -1.53618
B         -5.56568        0.09725       -1.52061
B         -5.39364        1.64064       -1.49507
B          0.45099       -2.23573        2.05781
