45
isomer_0523.log	Energy: -112499.6183556
B          2.62612       -1.67139        0.34792
B          2.61853       -3.30302       -0.05869
B          1.21216       -4.13018       -0.31316
B         -0.24457       -3.30812        0.25233
B          1.16639       -0.78575        0.66999
B         -1.70819       -0.81899        0.75853
B         -1.63511       -4.08345       -0.44737
B          4.08398       -0.79502        0.28668
B         -1.62843       -2.41394        0.17185
B          4.02514       -2.47942       -0.19742
B         -0.20992       -4.74354       -0.59937
B         -3.06771       -3.23750       -0.44620
B         -3.09475       -1.62549        0.14652
B         -4.55574       -0.80594       -0.33505
B         -0.27589        1.73699        0.86465
B         -1.65980        2.44103        0.25158
B         -3.11582        1.63495        0.20007
B         -4.56621        0.81285       -0.30847
B         -4.40900        2.37536       -0.52827
B         -3.10973        3.26577       -0.33940
B         -1.68818        4.12974       -0.31249
B         -0.28759        3.34988        0.36167
B         -0.27167        4.81282       -0.44243
B          2.57527        3.39199        0.05126
B          1.15828        4.20882       -0.17621
B          2.60402        1.74812        0.40408
B          3.99237        2.59162       -0.11414
B          4.07307        0.89314        0.31440
B          1.16880        2.56034        0.58186
B          1.20155       -2.50748        0.49864
B         -3.18748       -0.10230        0.56833
B          1.15593        0.83359        0.69658
B         -4.37841       -2.35823       -0.60601
B          5.34355       -1.65794       -0.68968
B          5.33043       -0.03088       -0.42901
B          5.32118        1.80386       -0.63283
B          6.49190        0.86663       -1.25197
B          6.50193       -0.68585       -1.27746
B         -1.71883        0.82678        0.78556
B          0.22743       -1.70115        2.36405
B         -0.25360       -1.71260        0.80800
B         -5.89184       -1.65356       -0.80678
B         -6.09804        0.05921       -0.84342
B         -5.91145        1.79030       -0.82083
B          0.08990        0.47797        0.59210
