45
isomer_0524.log	Energy: -112560.0967443
B         -2.57516        1.75643        0.39209
B         -2.54765        3.39937        0.03488
B         -1.13099        4.21862       -0.18574
B          0.31322        3.36430        0.36382
B         -1.12702        0.84585        0.69644
B          1.74711        0.84549        0.80394
B          1.71646        4.14531       -0.30349
B         -4.04177        0.89803        0.29535
B          1.68806        2.45812        0.26509
B         -3.96195        2.59549       -0.13740
B          0.29935        4.82497       -0.44445
B          3.13999        3.28435       -0.31885
B          3.14610        1.65505        0.22519
B          4.60149        0.83467       -0.27171
B          0.28720       -1.69697        0.82403
B          1.66761       -2.39711        0.19870
B          3.13236       -1.60556        0.18060
B          4.59467       -0.78420       -0.29385
B          4.42241       -2.33762       -0.56161
B          3.11259       -3.21927       -0.40779
B          1.68185       -4.06831       -0.41582
B          0.28517       -3.29404        0.27276
B          0.25908       -4.73189       -0.57514
B         -2.57586       -3.29599       -0.05668
B         -1.16613       -4.12082       -0.29979
B         -2.58957       -1.66326        0.34532
B         -3.98332       -2.47582       -0.20676
B         -4.04888       -0.79021        0.27226
B         -1.16421       -2.49586        0.50753
B         -1.14286        2.57224        0.57684
B          3.21995        0.11896        0.60148
B         -1.13385       -0.77358        0.67430
B          4.44236        2.39623       -0.49687
B         -5.28570        1.80342       -0.66244
B         -5.29149        0.16922       -0.45082
B         -5.30029       -1.65856       -0.70978
B         -6.45694       -0.69061       -1.30770
B         -6.45040        0.86196       -1.28647
B          1.74017       -0.80037        0.78143
B         -1.55348       -1.48811        2.37919
B          0.30174        1.75280        0.87121
B          5.94954        1.68167       -0.70931
B          6.13787       -0.03135       -0.79626
B          5.93285       -1.76022       -0.82700
B         -0.29170       -0.30280        0.16330
