45
isomer_0527.log	Energy: -112858.7123090
B          2.87660       -1.63995        0.36024
B          2.24335       -3.33411        0.03215
B          0.83096       -4.41703       -0.12275
B         -0.55839       -3.55078        0.42209
B          0.91039       -0.58354        0.84195
B         -1.78369       -0.79546        0.82966
B         -2.00447       -4.14776       -0.32055
B          4.14572       -0.85390        0.31927
B         -1.85359       -2.50388        0.26555
B          3.98512       -2.53552       -0.20506
B         -0.64827       -4.91336       -0.44544
B         -3.28549       -3.16447       -0.36227
B         -3.21089       -1.62012        0.20780
B         -4.54367       -0.67059       -0.26739
B         -0.32036        1.83486        0.98183
B         -1.66035        2.54826        0.27309
B         -3.06173        1.78310        0.19099
B         -4.42964        1.00163       -0.28702
B         -4.38011        2.64637       -0.66132
B         -2.94718        3.39459       -0.37690
B         -1.55449        4.20139       -0.37252
B         -0.17917        3.43300        0.36966
B         -0.12351        4.78971       -0.49039
B          2.65362        3.28851        0.03891
B          1.28800        4.17360       -0.18188
B          2.69713        1.67472        0.44374
B          4.06095        2.41893       -0.16176
B          4.14809        0.83246        0.29420
B          1.27433        2.63402        0.59719
B          0.83790       -3.01581        0.66239
B         -3.20779        0.07178        0.56330
B          1.30101        0.95424        0.71278
B         -4.62476       -2.31668       -0.61215
B          5.33440       -1.79153       -0.70449
B          5.35944       -0.06692       -0.43223
B          5.35064        1.63377       -0.67551
B          6.46127        0.64826       -1.37228
B          6.42594       -0.86649       -1.37565
B         -1.72854        0.90689        0.84630
B          1.27531       -1.81099        0.21047
B         -0.49591       -1.71351        0.88240
B         -5.85729       -1.37767       -0.89046
B         -5.90871        0.19715       -0.89823
B         -5.68032        1.82069       -0.93412
B          0.58815        0.80213        1.80441
