45
isomer_0528.log	Energy: -113473.6036394
B         -2.49747       -1.73664       -0.55750
B         -2.34571       -3.10933        0.52076
B         -0.97589       -3.85302        0.59079
B          0.22814       -3.30566       -0.54228
B         -1.21219       -0.76396       -0.74033
B          1.72942       -0.74340       -1.06477
B          1.77438       -4.09451        0.15120
B         -3.89973       -0.88601       -0.23597
B          1.74043       -2.45371       -0.47925
B         -3.73978       -2.34069        0.47519
B          0.43915       -4.50979        0.60447
B          3.09938       -3.23611        0.08073
B          3.14394       -1.65278       -0.47821
B          4.37916       -0.70607        0.21861
B          0.26547        1.80371       -0.86430
B          1.65876        2.57734       -0.38768
B          3.10246        1.83836       -0.19643
B          4.54885        0.93648        0.00303
B          4.34463        2.56953        0.70278
B          2.96446        3.36480        0.41923
B          1.55218        4.16554        0.47870
B          0.20253        3.37226       -0.28958
B          0.12795        4.68008        0.61302
B         -2.61666        3.26738        0.03108
B         -1.28245        4.06873        0.25422
B         -2.61232        1.57037       -0.75331
B         -3.89283        2.40592        0.03766
B         -4.01256        0.84822       -0.44184
B         -1.25354        2.47291       -0.45291
B         -1.25269       -2.75621       -1.02012
B          3.21031        0.12521       -0.60833
B         -1.20172        0.86377       -1.09466
B          4.48522       -2.38319        0.40772
B         -5.12919       -1.59614        0.73559
B         -5.29182       -0.04155        0.08322
B         -5.28421        1.61908        0.40831
B         -6.34079        0.77248        1.10021
B         -6.25368       -0.68898        1.27399
B          1.70919        0.92158       -0.79120
B         -0.96552       -2.03618        0.55915
B          0.27362       -1.58441       -0.49769
B          5.60289       -1.48968        0.88557
B          5.73343        0.09223        0.99559
B          5.47044        1.60843        1.12040
B          0.27434        0.02357       -1.25486
