45
isomer_0529.log	Energy: -111928.3183478
B          2.59860       -1.68185        0.37887
B          2.55913       -3.33321        0.01367
B          1.14104       -4.16731       -0.21004
B         -0.30933       -3.33444        0.34384
B          1.09078       -0.75315        0.70232
B         -1.77167       -0.82135        0.80553
B         -1.70289       -4.11897       -0.32981
B          4.03423       -0.81028        0.29696
B         -1.69647       -2.43897        0.25062
B          3.97673       -2.50427       -0.15187
B         -0.28121       -4.77754       -0.47271
B         -3.13021       -3.27404       -0.34152
B         -3.15839       -1.64869        0.21649
B         -4.62044       -0.83456       -0.27395
B         -0.33952        1.74512        0.85219
B         -1.72688        2.43423        0.22822
B         -3.17902        1.62521        0.19955
B         -4.62855        0.78944       -0.28302
B         -4.47893        2.34981       -0.54165
B         -3.17040        3.24300       -0.37415
B         -1.75067        4.10684       -0.37237
B         -0.34846        3.34680        0.31265
B         -0.33587        4.78026       -0.52035
B          2.51129        3.37617       -0.01325
B          1.09516        4.19036       -0.24934
B          2.54672        1.74307        0.37692
B          3.93211        2.56202       -0.17096
B          4.01901        0.88212        0.29061
B          1.10744        2.56614        0.54462
B          1.13404       -2.53777        0.56320
B         -3.24993       -0.10541        0.60581
B          1.08525        0.84397        0.69336
B         -4.45169       -2.39907       -0.51609
B          5.28688       -1.69317       -0.66615
B          5.27044       -0.05786       -0.43957
B          5.25397        1.76302       -0.67956
B          6.41601        0.81495       -1.28378
B          6.43519       -0.73019       -1.27898
B         -1.78194        0.82986        0.79805
B          1.45247       -1.39135        0.36093
B         -0.32702       -1.70834        0.86529
B         -5.94677       -1.68053       -0.72022
B         -6.14866        0.01915       -0.79086
B         -5.96445        1.73434       -0.80715
B          1.55286        1.05645        1.78763
