45
isomer_0053.log	Energy: -113441.9657653
B         -2.47491       -1.74114       -0.39429
B         -2.66171       -3.19375        0.79668
B         -1.38404       -4.10350        0.81158
B         -0.07613       -3.24217       -0.39272
B         -1.28493       -0.63259       -1.02268
B          1.68383       -0.78871       -1.00521
B          1.38137       -3.98010        0.24494
B         -3.68491       -0.64546        0.00608
B          1.55266       -2.48780       -0.56466
B         -3.73909       -2.13640        0.65053
B          0.05099       -4.49956        0.66393
B          2.83014       -3.27260        0.16994
B          3.02534       -1.74391       -0.31588
B          4.41266       -0.90696        0.21259
B          0.39909        1.88210       -0.97082
B          1.84743        2.55105       -0.45800
B          3.21398        1.67903       -0.16201
B          4.64514        0.72823       -0.04860
B          4.49966        2.36321        0.68910
B          3.19354        3.24698        0.35128
B          1.83364        4.13183        0.42208
B          0.44074        3.42781       -0.33912
B          0.45448        4.75281        0.56122
B         -2.37479        3.45246        0.11189
B         -0.97999        4.21819        0.27901
B         -2.45181        1.82461       -0.46704
B         -3.79888        2.69144        0.15942
B         -3.73021        1.01820        0.01441
B         -1.08931        2.68749       -0.57201
B         -1.82032       -3.42089       -0.59124
B          3.25520       -0.02732       -0.65361
B         -1.14832        0.95956       -1.03350
B          4.26662       -2.56331        0.59690
B         -5.16484       -1.31705        0.68105
B         -5.17675        0.23692        0.07900
B         -5.12908        1.93487        0.50962
B         -6.24629        1.00837        1.06141
B         -6.37037       -0.47336        0.99893
B          1.77516        0.86161       -0.72302
B          0.24908        0.09549       -0.96436
B          0.27772       -1.65380       -1.30257
B          5.44837       -1.75475        1.08240
B          5.69763       -0.21191        1.10312
B          5.52204        1.32901        1.14358
B         -1.16981       -2.28422       -1.41937
