45
isomer_0530.log	Energy: -113488.1797236
B         -2.67876        1.69027        0.68115
B         -2.65515        3.33290        0.19732
B         -1.27052        4.17781        0.01582
B          0.16331        3.40229        0.53102
B         -1.28000        0.81229        1.05459
B          1.63603        0.90888        0.73051
B          1.53600        4.21672       -0.22317
B         -4.08526        0.87739        0.36140
B          1.65032        2.60917        0.50869
B         -3.96078        2.50367       -0.12452
B          0.10526        4.77968       -0.27970
B          2.93025        3.41835       -0.25315
B          3.05043        1.81737        0.16327
B          4.50699        0.97594       -0.02156
B          0.30501       -1.75828        1.12303
B          1.49087       -2.32541       -0.04708
B          3.05373       -1.62919        0.13977
B          4.36337       -0.63907       -0.41916
B          4.30689       -2.33609       -0.77889
B          2.99899       -3.16388       -0.28709
B          1.63610       -4.06731       -0.00634
B          0.35030       -3.42046        1.13797
B          0.27696       -4.74912        0.03148
B         -2.54323       -3.27481        0.04542
B         -1.12345       -4.11445        0.02894
B         -2.58309       -1.66662        0.60123
B         -3.81960       -2.40226       -0.15997
B         -3.90138       -0.75758        0.22092
B         -1.13040       -2.52762        0.64999
B         -1.29938        2.52783        0.69328
B          3.17180        0.11427        0.50880
B         -1.27443       -0.77548        1.03984
B          4.31179        2.63024       -0.65187
B         -5.18375        1.72981       -0.73757
B         -4.71951        0.10118       -0.93994
B         -4.96431       -1.56817       -0.98071
B         -5.92404       -0.70931       -1.74284
B         -6.10553        0.77951       -1.52129
B          1.66698       -0.74214        0.82528
B          0.19833        0.00957        1.11583
B          0.22972        1.81236        1.02932
B          5.36339        1.68735       -1.18167
B          5.62250        0.13748       -1.23198
B          5.45373       -1.40134       -1.26266
B          0.12354       -3.02374       -0.58370
