45
isomer_0531.log	Energy: -113473.6398360
B          2.60993        1.57040       -0.74660
B          2.61368        3.26609        0.03578
B          1.27940        4.06705        0.26011
B         -0.20577        3.37500       -0.29390
B          1.20013        0.86560       -1.09375
B         -1.71135        0.92284       -0.79860
B         -1.55543        4.16453        0.47872
B          4.01105        0.84894       -0.43625
B         -1.66048        2.57687       -0.38795
B          3.89217        2.40671        0.04271
B         -0.13119        4.67833        0.61675
B         -2.96598        3.36187        0.42049
B         -3.10439        1.83749       -0.19933
B         -4.54858        0.93377        0.00622
B         -0.27292       -1.58304       -0.49433
B         -1.73973       -2.45262       -0.48069
B         -3.14429       -1.65399       -0.47977
B         -4.37988       -0.70851        0.21603
B         -4.48417       -2.38568        0.40654
B         -3.09898       -3.23746        0.07704
B         -1.77253       -4.09370        0.15144
B         -0.22739       -3.30372       -0.54197
B         -0.43708       -4.50928        0.60405
B          2.34787       -3.10809        0.52328
B          0.97773       -3.85153        0.59019
B          2.49828       -1.73648       -0.55819
B          3.74114       -2.33938        0.47596
B          3.89919       -0.88495       -0.23427
B          1.25486       -2.75721       -1.01805
B          1.25094        2.47981       -0.46549
B         -3.21186        0.12373       -0.61135
B          1.21301       -0.76140       -0.73553
B         -4.34490        2.56523        0.70591
B          5.28498        1.61984        0.40959
B          5.29342       -0.04058        0.08019
B          5.13208       -1.59564        0.73226
B          6.25964       -0.68999        1.26698
B          6.34417        0.77198        1.09585
B         -1.72873       -0.74298       -1.06422
B          0.96848       -2.03249        0.56051
B         -0.26749        1.80809       -0.87317
B         -5.47193        1.60491        1.12220
B         -5.73303        0.08841        0.99836
B         -5.60056       -1.49292        0.88934
B         -0.27348        0.02412       -1.25307
