45
isomer_0532.log	Energy: -113518.9039458
B         -2.50920        1.76031        0.52408
B         -2.54359        3.37940        0.14652
B         -1.17989        4.16028       -0.06737
B          0.30119        3.40781        0.44765
B         -1.01210        0.89635        0.80889
B          1.75692        0.87406        0.82848
B          1.63781        4.10500       -0.42850
B         -3.90642        0.84364        0.21482
B          1.72836        2.51665        0.24458
B         -3.90949        2.52261       -0.04305
B          0.20263        4.69653       -0.47519
B          3.02742        3.29292       -0.43669
B          3.12655        1.72702        0.13301
B          4.56677        0.87817       -0.17395
B          0.43642       -1.64636        0.90500
B          1.85136       -2.43446        0.51307
B          3.30530       -1.64442        0.43811
B          4.71664       -0.76528        0.18249
B          4.57604       -2.40565       -0.41917
B          3.22985       -3.24085       -0.03900
B          1.88069       -4.06369       -0.15882
B          0.40296       -3.32580        0.47431
B          0.47978       -4.61930       -0.46129
B         -2.27884       -3.12060       -0.47252
B         -0.90544       -4.00161       -0.34996
B         -2.60582       -1.85405        1.00492
B         -3.64328       -2.35800       -0.56623
B         -3.86667       -0.94448        0.40306
B         -1.11191       -2.49349        0.65150
B         -1.13844        2.58786        0.78787
B          3.28851        0.07492        0.66384
B         -2.41154       -0.00052        0.32412
B          4.42117        2.48283       -0.76280
B         -5.13497        1.63332       -0.58284
B         -5.28102       -0.05819       -0.08943
B         -5.11206       -1.67592       -0.66030
B         -6.29649       -0.84079       -1.12221
B         -6.19276        0.64578       -1.21640
B          1.75579       -0.75108        0.78079
B         -2.13848       -1.41274       -0.61435
B          0.36512        1.75425        0.97493
B          5.62288        1.60839       -1.10061
B          5.85516        0.06172       -0.97571
B          5.65120       -1.45591       -0.93113
B         -1.00814       -0.79662        0.69548
