45
isomer_0533.log	Energy: -112537.8325860
B         -2.67760       -1.59970       -0.45194
B         -2.58825       -3.25773       -0.05006
B         -1.18874       -4.09035        0.19917
B          0.27530       -3.33834       -0.33524
B         -1.31357       -0.63929       -0.77187
B          1.74223       -0.77093       -0.86530
B          1.63657       -4.07589        0.38967
B         -4.02889       -0.77546       -0.35053
B          1.72044       -2.44665       -0.22060
B         -3.96574       -2.41259        0.08749
B          0.23328       -4.65688        0.49227
B          3.08182       -3.22310        0.41153
B          3.11874       -1.61996       -0.18811
B          4.54616       -0.73051        0.29774
B          0.22424        1.73290       -0.93166
B          1.61694        2.45842       -0.31334
B          3.07888        1.67745       -0.25379
B          4.51343        0.87884        0.26482
B          4.37361        2.46027        0.52346
B          3.00632        3.28277        0.29749
B          1.58627        4.10608        0.27915
B          0.22156        3.34394       -0.39329
B          0.20284        4.69655        0.41336
B         -2.59033        3.32942       -0.03244
B         -1.19321        4.12761        0.16982
B         -2.63277        1.69165       -0.42810
B         -3.96011        2.49479        0.13318
B         -4.02994        0.89372       -0.34021
B         -1.24703        2.52849       -0.60715
B         -1.25918       -2.50532       -0.61695
B          3.19871       -0.02236       -0.62960
B         -1.22975        0.82524       -0.75628
B          4.46181       -2.34016        0.61281
B         -5.22152       -1.64869        0.63402
B         -5.21809       -0.00624        0.40368
B         -5.20446        1.72731        0.63734
B         -6.29250        0.79801        1.24388
B         -6.33927       -0.67739        1.25984
B          1.70937        0.86532       -0.86750
B         -0.02158       -0.53320        0.84371
B          0.34216       -1.73722       -0.92127
B          5.79129       -1.47060        0.78960
B          5.92154        0.15794        0.80487
B          5.72594        1.69653        0.78029
B         -0.12688       -1.19469       -1.64396
