45
isomer_0534.log	Energy: -110234.0473919
B         -2.65606       -1.63250       -0.38613
B         -2.64763       -3.26485        0.01753
B         -1.24090       -4.09128        0.27239
B          0.21589       -3.26695       -0.28963
B         -1.19665       -0.74503       -0.70461
B          1.67807       -0.77568       -0.78934
B          1.60615       -4.04237        0.41054
B         -4.11475       -0.75747       -0.32527
B          1.59888       -2.37176       -0.20567
B         -4.05513       -2.44270        0.15586
B          0.18131       -4.70395        0.55942
B          3.03802       -3.19521        0.41284
B          3.06449       -1.58210       -0.17693
B          4.52414       -0.76219        0.30810
B          0.24374        1.77928       -0.89276
B          1.62622        2.48338       -0.27655
B          3.08285        1.67845       -0.22453
B          4.53325        0.85665        0.28447
B          4.37442        2.41863        0.50690
B          3.07465        3.30828        0.31789
B          1.65240        4.17108        0.29063
B          0.25339        3.39126       -0.38684
B          0.23514        4.85273        0.41990
B         -2.60992        3.43038       -0.08022
B         -1.19394        4.24799        0.15065
B         -2.63680        1.78713       -0.43605
B         -4.02656        2.62851        0.08182
B         -4.10524        0.93074       -0.34991
B         -1.20203        2.60089       -0.61043
B         -1.23058       -2.46710       -0.53644
B          3.15649       -0.05808       -0.59584
B         -1.18753        0.87436       -0.72826
B          4.34776       -2.31512        0.57601
B         -5.37490       -1.62324        0.64783
B         -5.36281        0.00430        0.39013
B         -5.35540        1.83868        0.59729
B         -6.52615        0.89934        1.21314
B         -6.53490       -0.65320        1.23581
B          1.68734        0.87015       -0.81337
B         -0.36404       -2.46762       -1.25119
B          0.22431       -1.67042       -0.84240
B          5.86031       -1.60953        0.78009
B          6.06501        0.10335        0.82012
B          5.87697        1.83431        0.80042
B          1.42074       -0.49150       -0.34743
