45
isomer_0535.log	Energy: -113475.6384035
B         -2.50943        1.65034        0.56863
B         -2.45802        3.30806       -0.09457
B         -1.08226        4.09469       -0.29266
B          0.34782        3.38517        0.34577
B         -1.14516        0.91535        1.04361
B          1.78918        0.88790        0.93669
B          1.73447        4.14309       -0.41501
B         -3.94240        0.93772        0.30565
B          1.78207        2.54936        0.45677
B         -3.80233        2.50330       -0.13749
B          0.33304        4.69434       -0.58086
B          3.09505        3.27582       -0.35590
B          3.16560        1.73654        0.22661
B          4.51148        0.76766       -0.19454
B          0.17419       -1.59994        0.50524
B          1.62771       -2.48665        0.32078
B          3.10228       -1.72042        0.39114
B          4.57332       -0.87189        0.15902
B          4.37492       -2.48513       -0.45434
B          3.00596       -3.31241       -0.07796
B          1.62561       -4.12561       -0.16643
B          0.10899       -3.32081        0.56791
B          0.27273       -4.49464       -0.60391
B         -2.50938       -3.08780       -0.42297
B         -1.14839       -3.82927       -0.53211
B         -2.59765       -1.69256        0.65045
B         -3.87860       -2.28889       -0.35884
B         -3.98064       -0.81557        0.30920
B         -1.35005       -2.73499        1.06550
B         -1.14642        2.60596        0.61154
B          3.25953        0.02934        0.68068
B         -1.29701       -0.70246        0.69194
B          4.44446        2.43045       -0.71232
B         -5.20077        1.73703       -0.53212
B         -5.28770        0.10206       -0.10278
B         -5.25482       -1.50553       -0.61853
B         -6.33562       -0.57828       -1.20350
B         -6.30666        0.89609       -1.15928
B          1.66142       -0.76462        0.74133
B         -1.13294       -2.00926       -0.51935
B          0.36411        1.86706        1.04137
B          5.57424        1.48695       -1.13193
B          5.73857       -0.05981       -1.04638
B          5.44808       -1.57716       -1.00080
B          0.25143        0.05940        1.09477
