45
isomer_0538.log	Energy: -113468.0493993
B         -2.67187       -1.50202       -0.69652
B         -2.71791       -3.13775       -0.92893
B         -1.53089       -3.91145        0.08402
B          0.05276       -3.22722       -0.38726
B         -1.05936       -0.64920       -0.95047
B          1.72413       -0.87105       -0.87302
B          1.28434       -4.03434        0.47734
B         -3.93514       -0.48229       -0.26124
B          1.52466       -2.43560       -0.19281
B         -3.99489       -2.18466        0.21145
B         -0.16844       -4.54833        0.47587
B          2.74946       -3.33712        0.50176
B          3.02698       -1.84464       -0.12768
B          4.50237       -1.06334        0.23827
B          0.56519        1.69207       -0.87511
B          2.07084        2.40027       -0.53285
B          3.45213        1.50989       -0.38018
B          4.81638        0.52350       -0.18594
B          4.78995        2.19665        0.41674
B          3.48876        3.09430        0.07782
B          2.17238        4.02212        0.19505
B          0.69626        3.36089       -0.39304
B          0.81756        4.71340        0.43357
B         -2.10058        3.50794        0.19056
B         -0.63077        4.21889        0.26108
B         -2.32356        2.00304       -0.43130
B         -3.58408        2.84842        0.37180
B         -3.77254        1.22487       -0.08878
B         -0.82979        2.63088       -0.47296
B         -1.27803       -2.39214       -1.04866
B          3.34255       -0.19322       -0.66755
B         -0.93225        0.94087       -0.89880
B          4.20883       -2.64285        0.84475
B         -5.27912       -1.23739        0.55459
B         -5.23128        0.45475        0.25077
B         -4.93645        2.14660        0.78167
B         -6.04276        1.25089        1.40828
B         -6.23059       -0.25687        1.28929
B          1.87548        0.72805       -0.79949
B         -2.81156       -3.07772        0.63387
B          0.26554       -1.62761       -1.02655
B          5.47577       -1.87401        1.19441
B          5.84998       -0.36462        1.03836
B          5.77367        1.16638        0.94238
B         -2.46407        0.26075       -0.65454
