45
isomer_0054.log	Energy: -113389.7459879
B         -2.64164       -1.40925       -0.48172
B         -2.61388       -3.07210        0.16419
B         -1.52022       -3.96816        0.81249
B          0.14662       -3.27272       -0.60409
B         -1.25607       -0.66150       -1.03617
B          1.73410       -0.80838       -0.73878
B          1.44152       -4.01561        0.29990
B         -4.02658       -0.60113       -0.29493
B          1.63551       -2.52166       -0.44811
B         -3.99528       -2.16574        0.19414
B         -0.07214       -4.44113        0.53947
B          2.87973       -3.31985        0.29203
B          3.13658       -1.74379       -0.26571
B          4.61278       -0.95483       -0.02087
B          0.42984        1.79884       -1.05709
B          1.90556        2.56175       -0.49737
B          3.25745        1.67561       -0.20731
B          4.62900        0.72431        0.13898
B          4.53975        2.42323        0.68318
B          3.25091        3.27703        0.23804
B          1.84741        4.09322        0.31161
B          0.44311        3.40251       -0.45016
B          0.43904        4.66114        0.52390
B         -2.39546        3.41959        0.00060
B         -0.99679        4.13607        0.18180
B         -2.52236        1.77970       -0.54904
B         -3.80510        2.63630        0.19529
B         -3.96489        1.07229       -0.32171
B         -1.10911        2.62507       -0.62459
B         -1.30220       -2.30957       -0.67640
B          3.31908       -0.02536       -0.64615
B         -1.14426        0.93224       -0.98331
B          4.25406       -2.52633        0.70755
B         -5.25854       -1.39780        0.71608
B         -5.26195        0.28566        0.41418
B         -5.11419        1.95016        0.72929
B         -6.29019        1.07520        1.35039
B         -6.33659       -0.42269        1.36412
B          1.86227        0.90146       -0.87276
B          0.30570        0.10894       -1.02864
B          0.28823       -1.57243       -0.93476
B          5.33656       -1.63153        1.24748
B          5.66142       -0.12450        1.20253
B          5.57190        1.43855        1.20032
B         -1.30069       -4.01280       -0.76789
