45
isomer_0540.log	Energy: -112929.0728404
B         -2.67929       -1.63584       -0.57331
B         -2.62231       -3.28944       -0.03835
B         -1.31699       -4.14779        0.17314
B          0.17171       -3.44881       -0.41839
B         -0.98816       -0.44416       -0.96536
B          1.67255       -0.89134       -0.96555
B          1.52961       -4.11257        0.40436
B         -3.95771       -0.77491       -0.29477
B          1.56564       -2.53549       -0.33222
B         -3.87949       -2.45235        0.20779
B          0.14214       -4.72039        0.55178
B          2.91246       -3.26154        0.42999
B          3.00481       -1.77177       -0.18416
B          4.40634       -0.92849        0.34142
B          0.40073        1.81372       -1.05596
B          1.83618        2.48160       -0.37132
B          3.16696        1.61507       -0.28091
B          4.45247        0.74804        0.25727
B          4.51564        2.37444        0.61670
B          3.15448        3.20501        0.31658
B          1.80917        4.10713        0.30475
B          0.41436        3.43604       -0.42998
B          0.39642        4.77079        0.42844
B         -2.44299        3.42323       -0.06198
B         -1.02381        4.24282        0.14391
B         -2.45225        1.80092       -0.47560
B         -3.77805        2.55449        0.14041
B         -3.91424        0.96898       -0.27742
B         -1.04564        2.70754       -0.66179
B         -1.22510       -2.77882       -0.71718
B          3.16809       -0.11295       -0.59798
B         -0.97020        1.06513       -1.08338
B          4.32058       -2.55338        0.72136
B         -5.10298       -1.57046        0.83028
B         -5.06390        0.08549        0.54145
B         -5.03834        1.73334        0.74305
B         -6.10267        0.85124        1.50203
B         -6.10639       -0.65984        1.54200
B          1.78033        0.80939       -0.95818
B         -1.48318       -1.53699       -1.63420
B          0.28719       -1.73898       -1.15847
B          5.60447       -1.71434        1.01543
B          5.78965       -0.16295        0.97716
B          5.69843        1.44084        0.96404
B         -1.00674        1.00836        0.38315
