45
isomer_0541.log	Energy: -111568.4578295
B         -2.55189        1.77008        0.36814
B         -2.51557        3.41566        0.02412
B         -1.09438        4.23018       -0.18458
B          0.34383        3.36496        0.36367
B         -1.10906        0.85053        0.67077
B          1.76460        0.83623        0.78922
B          1.75314        4.14484       -0.29204
B         -4.02198        0.91916        0.25898
B          1.71492        2.45334        0.26299
B         -3.93282        2.61962       -0.15995
B          0.33967        4.83204       -0.43300
B          3.17281        3.27755       -0.30882
B          3.16946        1.64398        0.22227
B          4.62303        0.82095       -0.27558
B          0.29314       -1.69964        0.78352
B          1.67276       -2.40107        0.15791
B          3.14115       -1.61608        0.15170
B          4.60897       -0.79765       -0.31062
B          4.43071       -2.34809       -0.59139
B          3.11634       -3.22496       -0.44958
B          1.68181       -4.06739       -0.46982
B          0.28601       -3.29226        0.21956
B          0.25668       -4.72320       -0.63984
B         -2.57372       -3.27857       -0.12079
B         -1.16680       -4.10785       -0.36508
B         -2.58158       -1.64903        0.29412
B         -3.97686       -2.45083       -0.26971
B         -4.03664       -0.76879        0.22244
B         -1.16064       -2.48937        0.45514
B         -1.11663        2.57786        0.56483
B          3.23491        0.10463        0.58661
B         -1.12313       -0.76862        0.63572
B          4.47182        2.38496       -0.48893
B         -5.25810        1.83778       -0.69631
B         -5.27210        0.20199       -0.49772
B         -5.28817       -1.62362       -0.77124
B         -6.43812       -0.64569       -1.36586
B         -6.42464        0.90661       -1.33225
B          1.75031       -0.80935        0.75360
B         -1.75774       -2.05723        2.68045
B          0.32310        1.74955        0.85819
B          5.97656        1.66525       -0.70129
B          6.15748       -0.04787       -0.80114
B          5.94476       -1.77549       -0.84642
B         -0.82745        0.03490        1.04802
