45
isomer_0542.log	Energy: -113675.8859873
B          2.50983       -1.75987        0.48891
B          2.42827       -3.33471       -0.03958
B          1.04853       -4.15730       -0.12254
B         -0.35016       -3.38491        0.51420
B          1.13022       -0.84899        1.04266
B         -1.78593       -0.83053        0.91045
B         -1.74718       -4.14412       -0.24690
B          3.95644       -0.90986        0.21541
B         -1.80143       -2.53263        0.48775
B          3.81038       -2.53699       -0.29246
B         -0.34056       -4.74589       -0.35210
B         -3.09130       -3.28091       -0.26645
B         -3.17351       -1.68089        0.26046
B         -4.53231       -0.79849       -0.23676
B         -0.31325        1.83081        1.08784
B         -1.72517        2.55138        0.43090
B         -3.12925        1.73283        0.22117
B         -4.54685        0.89338       -0.14586
B         -4.32674        2.49916       -0.77079
B         -3.00902        3.33997       -0.27889
B         -1.64246        4.16958       -0.25856
B         -0.26972        3.40314        0.53958
B         -0.22059        4.74834       -0.35272
B          2.51272        3.30401       -0.03705
B          1.15584        4.14956       -0.10858
B          2.56254        1.73101        0.52981
B          3.86904        2.48540       -0.27619
B          3.98390        0.84590        0.22454
B          1.18501        2.57754        0.78845
B          1.11987       -2.58982        0.76591
B         -3.29388        0.01575        0.60971
B          1.16994        0.85029        1.06859
B         -4.40663       -2.44493       -0.74912
B          5.06116       -1.73815       -0.86463
B          5.19519       -0.04371       -0.52339
B          5.10389        1.65241       -0.84583
B          6.10453        0.70758       -1.60591
B          6.08483       -0.81324       -1.61260
B         -1.71821        0.84339        0.78862
B          2.60980       -0.01582        0.74606
B         -0.36893       -1.82521        1.11701
B         -5.47278       -1.51916       -1.30152
B         -5.61981        0.03280       -1.30485
B         -5.37328        1.56892       -1.33875
B         -0.34298        0.00299        1.09404
