45
isomer_0545.log	Energy: -113347.2214345
B          2.46488        1.65955       -0.59101
B          2.39192        3.33824        0.19554
B          1.02134        4.08942        0.37317
B         -0.42260        3.45323       -0.41404
B          1.08636        1.02371       -1.12254
B         -1.79430        0.86372       -0.81529
B         -1.81772        4.10822        0.49967
B          3.85771        0.92676       -0.23989
B         -1.80211        2.54417       -0.33147
B          3.70421        2.49889        0.23281
B         -0.41751        4.62682        0.69213
B         -3.16249        3.22522        0.42140
B         -3.20070        1.68659       -0.19891
B         -4.58422        0.71777        0.07412
B         -0.11270       -1.77444       -0.99954
B         -1.60907       -2.53688       -0.53444
B         -3.05483       -1.74177       -0.32759
B         -4.52681       -0.92779       -0.10504
B         -4.36582       -2.57973        0.47912
B         -2.92567       -3.28509        0.21053
B         -1.51826       -4.00335        0.52247
B         -0.12783       -3.18168        0.03515
B         -0.12952       -4.47581        0.93776
B          2.65513       -3.12917        0.53109
B          1.28718       -3.87026        0.76375
B          2.82663       -1.83216       -0.83438
B          3.89702       -2.29453        0.46342
B          4.04799       -0.83346       -0.33693
B          1.33190       -2.51676       -0.31497
B          1.08811        2.62784       -0.50506
B         -3.26274       -0.05052       -0.68291
B          1.19791       -0.58373       -1.31547
B         -4.49545        2.34028        0.73566
B          5.07899        1.80591        0.62548
B          5.26443        0.16138        0.15882
B          5.24090       -1.40057        0.74571
B          6.27947       -0.45637        1.35379
B          6.17990        1.00430        1.30503
B         -1.62300       -0.80615       -0.87708
B          1.57285       -1.94239       -1.83719
B         -0.43231        1.92228       -1.04458
B         -5.58659        1.35316        1.14161
B         -5.71940       -0.18265        1.04453
B         -5.48824       -1.71066        0.95148
B         -0.29499        0.13844       -1.06592
