45
isomer_0546.log	Energy: -112429.4734979
B         -2.61011        1.77607        0.43415
B         -2.59361        3.42140        0.08746
B         -1.18274        4.24966       -0.13672
B          0.26943        3.39957        0.39823
B         -1.15526        0.87132        0.72352
B          1.71945        0.88569        0.81301
B          1.66426        4.19239       -0.27276
B         -4.07271        0.91045        0.34103
B          1.64843        2.50143        0.28502
B         -4.00466        2.61108       -0.08119
B          0.24269        4.86533       -0.40043
B          3.09223        3.33919       -0.30263
B          3.11045        1.70647        0.23078
B          4.56703        0.89714       -0.28054
B          0.27327       -1.66464        0.82574
B          1.65341       -2.35331        0.18724
B          3.11379       -1.55381        0.16511
B          4.56869       -0.72157       -0.31314
B          4.40302       -2.27413       -0.58990
B          3.09891       -3.16377       -0.43361
B          1.67269       -4.02040       -0.43818
B          0.27627       -3.25811        0.26414
B          0.25250       -4.69057       -0.59290
B         -2.58674       -3.27328       -0.04739
B         -1.17418       -4.08894       -0.30467
B         -2.60660       -1.64328        0.36528
B         -3.99945       -2.45972       -0.18332
B         -4.07098       -0.77762        0.30703
B         -1.17584       -2.46924        0.51315
B         -1.18104        2.59834        0.61522
B          3.19484        0.16840        0.59662
B         -1.15359       -0.74794        0.69090
B          4.39816        2.45925       -0.49456
B         -5.32745        1.81532       -0.60305
B         -5.32320        0.17978       -0.40202
B         -5.32390       -1.64631       -0.67277
B         -6.48943       -0.68074       -1.25715
B         -6.49102        0.87167       -1.22588
B          1.72114       -0.76000        0.77986
B         -0.30196       -0.74541       -0.08889
B          0.26973        1.78478        0.89522
B          5.90776        1.75417       -0.72107
B          6.10466        0.04278       -0.82031
B          5.90866       -1.68693       -0.86099
B         -0.30700       -2.62197        2.00535
