45
isomer_0547.log	Energy: -113521.6270062
B          2.52832        1.72731       -0.57680
B          2.57624        3.35922       -0.19340
B          1.22640        4.14415        0.05463
B         -0.26838        3.40399       -0.43686
B          1.02491        0.88255       -0.83491
B         -1.74889        0.88675       -0.82564
B         -1.58773        4.10988        0.45363
B          3.96251        0.83215       -0.35185
B         -1.69514        2.51740       -0.21865
B          3.93992        2.50104       -0.03551
B         -0.14945        4.69161        0.48420
B         -2.98632        3.30741        0.46742
B         -3.10805        1.74969       -0.11639
B         -4.55032        0.90522        0.19230
B         -0.44668       -1.64270       -0.91701
B         -1.87020       -2.42042       -0.53207
B         -3.31830       -1.62193       -0.44537
B         -4.71887       -0.73341       -0.17866
B         -4.59283       -2.37825        0.40941
B         -3.25498       -3.22176        0.01892
B         -1.91572       -4.05571        0.13404
B         -0.42858       -3.31911       -0.48953
B         -0.51911       -4.61893        0.43909
B          2.23388       -3.11815        0.47931
B          0.86442       -3.99741        0.34467
B          2.60371       -1.90034       -1.00357
B          3.58802       -2.36750        0.62725
B          3.86767       -0.98761       -0.40649
B          1.09563       -2.50633       -0.67376
B          1.16196        2.58029       -0.80719
B         -3.28752        0.09899       -0.66075
B          1.00668       -0.80602       -0.70652
B         -4.38580        2.50599        0.79503
B          5.13974        1.61099        0.53884
B          5.25022       -0.11031        0.16328
B          5.03998       -1.69959        0.77683
B          6.20809       -0.85683        1.27144
B          6.14767        0.63132        1.27632
B         -1.76228       -0.74008       -0.78553
B          2.12386       -1.38976        0.58959
B         -0.35009        1.75256       -0.97299
B         -5.59259        1.63879        1.13348
B         -5.84171        0.09827        0.99572
B         -5.65323       -1.42266        0.93561
B          2.44294       -0.02075       -0.41153
