45
isomer_0548.log	Energy: -113434.6980059
B         -2.60407        1.63134        0.67810
B         -2.52037        3.23779        0.05998
B         -1.16801        4.11626       -0.04500
B          0.30710        3.37621        0.49122
B         -1.13067        0.83841        1.03796
B          1.56573        0.74786        0.09652
B          1.63801        4.14521       -0.34830
B         -4.02034        0.79910        0.41883
B          1.69870        2.50506        0.27368
B         -3.87946        2.36252       -0.14558
B          0.22451        4.72042       -0.36718
B          3.04805        3.30267       -0.37461
B          3.07081        1.69348       -0.06037
B          4.53999        0.82679       -0.01569
B          0.25549       -1.64109        0.63802
B          1.68750       -2.49157        0.52098
B          3.12227       -1.75310        0.40471
B          4.40471       -0.83135       -0.26178
B          4.42616       -2.52879       -0.45951
B          3.01063       -3.29743       -0.11654
B          1.62581       -4.18515       -0.11779
B          0.24375       -3.26799        0.21298
B          0.21115       -4.77008       -0.27147
B         -2.59196       -3.26181       -0.08737
B         -1.21266       -4.10103       -0.18267
B         -2.66759       -1.58163        0.36017
B         -3.99139       -2.41680       -0.26182
B         -4.10006       -0.87574        0.40742
B         -1.27333       -2.45492        0.33325
B         -1.21273        2.55655        0.68135
B          3.13229        0.00984        0.47234
B         -1.20972       -0.69599        0.59961
B          4.42074        2.47103       -0.71216
B         -5.15279        1.65586       -0.67823
B         -5.31326        0.00400       -0.33757
B         -5.28685       -1.67216       -0.69581
B         -6.39201       -0.71973       -1.29763
B         -6.30340        0.76715       -1.33293
B          1.69404       -0.75529        1.08592
B          0.17871       -0.04601       -0.15253
B          0.35359        1.73358        0.93678
B          5.51251        1.48507       -1.07858
B          5.74281       -0.07378       -0.98363
B          5.58915       -1.64145       -0.90815
B          0.32644        0.07664        1.58307
