45
isomer_0549.log	Energy: -113441.9680130
B          2.47578       -1.74150        0.39392
B          2.66442       -3.19475       -0.79453
B          1.38778       -4.10598       -0.80975
B          0.07720       -3.24207        0.39410
B          1.28589       -0.63211        1.02270
B         -1.68342       -0.78920        1.00654
B         -1.37856       -3.98066       -0.24357
B          3.68376       -0.64398       -0.00897
B         -1.55142       -2.48857        0.56626
B          3.74094       -2.13604       -0.65015
B         -0.04745       -4.50102       -0.66057
B         -2.82756       -3.27334       -0.17064
B         -3.02346       -1.74470        0.31480
B         -4.41121       -0.90889       -0.21496
B         -0.40009        1.88202        0.97217
B         -1.84929        2.55106        0.46046
B         -3.21534        1.67817        0.16603
B         -4.64485        0.72601        0.04598
B         -4.49996        2.36139       -0.68895
B         -3.19552        3.24627       -0.34843
B         -1.83628        4.13200       -0.41931
B         -0.44278        3.42852        0.34140
B         -0.45767        4.75361       -0.55884
B          2.37177        3.45362       -0.11227
B          0.97689        4.21922       -0.27790
B          2.44954        1.82552        0.46544
B          3.79553        2.69291       -0.16237
B          3.72684        1.01929       -0.01865
B          1.08718        2.68777        0.57232
B          1.82074       -3.42170        0.59286
B         -3.25504       -0.02910        0.65293
B          1.14782        0.95962        1.03313
B         -4.26361       -2.56501       -0.59959
B          5.16584       -1.31443       -0.68046
B          5.17485        0.24079       -0.08084
B          5.12598        1.93764       -0.51270
B          6.24488        1.01192       -1.06277
B          6.37080       -0.46956       -0.99751
B         -1.77531        0.86110        0.72409
B          1.17108       -2.28352        1.41971
B         -0.27674       -1.65339        1.30438
B         -5.44508       -1.75697       -1.08653
B         -5.69531       -0.21414       -1.10720
B         -5.52045        1.32686       -1.14702
B         -0.24909        0.09532        0.96528
