45
isomer_0551.log	Energy: -113548.1886267
B         -2.45497       -1.63371       -0.45487
B         -2.85303       -3.25878       -0.34861
B         -1.60057       -4.27243       -0.16778
B         -0.03078       -3.78930       -0.83035
B         -2.05179        0.01228       -0.56250
B          1.00932       -0.97549       -0.65302
B          1.12079       -4.38285        0.37823
B         -3.70789       -0.57485       -0.15655
B          1.30314       -2.82260       -0.35909
B         -4.02535       -2.21873        0.00036
B         -0.28934       -4.94455        0.23178
B          2.45995       -3.53591        0.56209
B          2.49265       -1.88213        0.19537
B          4.03467       -1.24900        0.11513
B          0.44192        1.90871       -1.42870
B          1.52836        2.41354        0.04426
B          2.86703        1.42663        0.02108
B          4.22097        0.39951        0.25835
B          4.38300        2.07728        0.57898
B          3.13688        3.01630        0.24595
B          2.08369        4.15718       -0.17806
B          0.72642        3.53144       -1.06450
B          0.88746        5.01335       -0.30287
B         -1.60680        3.36153        0.30796
B         -0.49519        4.36470       -0.15450
B         -1.71267        1.72300       -0.22490
B         -3.01304        2.60155        0.66160
B         -3.28886        1.10730        0.05718
B         -0.87613        2.90336       -1.19490
B         -1.39237       -2.77581       -0.97184
B          2.68536       -0.29456       -0.29443
B         -0.32704        0.56165       -0.45022
B          3.84853       -2.78396        0.87671
B         -5.13094       -1.22348        0.56725
B         -4.77141        0.44969        0.58322
B         -4.41366        2.06016        1.04461
B         -5.76491        1.31736        1.47927
B         -6.07986       -0.13300        1.26557
B          1.36208        0.72622       -0.70711
B         -0.87300       -1.04071       -0.87533
B          0.18043       -2.21195       -1.39782
B          5.07044       -1.94198        1.13527
B          5.50351       -0.45860        0.95973
B          5.51604        1.07458        0.88301
B         -0.10302        2.19704        0.32497
