45
isomer_0552.log	Energy: -113558.8600257
B         -2.42813       -1.90074       -0.52632
B         -2.26639       -3.41280        0.15998
B         -0.80903       -4.15841        0.27433
B          0.55046       -3.36252       -0.37737
B         -0.98723       -0.90787       -0.97031
B          1.78640       -0.72733       -0.71875
B          2.00600       -4.03354        0.27624
B         -3.86192       -1.07489       -0.20826
B          1.95658       -2.41199       -0.43952
B         -3.69266       -2.74339        0.33508
B          0.63304       -4.67745        0.51651
B          3.34015       -3.13729        0.15584
B          3.35631       -1.55309       -0.34562
B          4.73696       -0.61900       -0.21258
B          0.23236        1.67467       -1.04079
B          1.58527        2.52419       -0.40572
B          3.04723        1.82288       -0.20546
B          4.52723        1.01065        0.12110
B          4.30769        2.65592        0.61982
B          2.88193        3.35673        0.30020
B          1.40182        4.07619        0.36623
B          0.11407        3.31302       -0.46887
B         -0.03105        4.53373        0.55577
B         -2.69439        3.03859        0.05764
B         -1.40162        3.88462        0.20416
B         -2.74447        1.50097       -0.78706
B         -4.02933        2.18649        0.34472
B         -4.17230        0.66434       -0.92456
B         -1.32843        2.40213       -0.69871
B         -0.92320       -2.59303       -0.48804
B          3.27461        0.15213       -0.66406
B         -1.08703        0.73054       -1.04239
B          4.67982       -2.23506        0.47435
B         -4.92660       -1.86427        0.81958
B         -5.32403       -0.23273        0.11615
B         -5.37103        1.38951        0.18134
B         -4.87247        0.92555        1.65019
B         -4.65030       -0.61652        1.70250
B          1.68196        0.85730       -0.84607
B         -3.57862        0.49980        0.72375
B          0.46281       -1.68379       -0.84149
B          5.67618       -1.21351        0.96841
B          5.85416        0.32418        0.94239
B          5.56503        1.84047        0.99123
B         -2.47785       -0.20538       -0.64558
