45
isomer_0555.log	Energy: -112781.4865836
B         -2.59059        1.76220        0.36490
B         -2.53321        3.40778       -0.04878
B         -1.12131        4.22385       -0.26421
B          0.28773        3.41888        0.29508
B         -1.23576        1.02455        0.63909
B          1.78010        0.86565        0.79181
B          1.69531        4.16026       -0.37057
B         -3.96832        0.86098        0.28528
B          1.69315        2.50155        0.22456
B         -3.89673        2.50893       -0.17049
B          0.30107        4.76353       -0.51372
B          3.10373        3.30797       -0.36436
B          3.14568        1.69694        0.20057
B          4.61640        0.84228       -0.25597
B          0.53837       -1.70660        0.84266
B          1.83650       -2.47142        0.25204
B          3.21870       -1.65035        0.23330
B          4.61900       -0.80478       -0.23339
B          4.54677       -2.40131       -0.49455
B          3.18160       -3.29421       -0.31321
B          1.77295       -4.15346       -0.30111
B          0.34078       -3.44963        0.33725
B          0.33142       -4.79637       -0.41279
B         -2.58807       -3.48697        0.00635
B         -1.16624       -4.33116       -0.19101
B         -2.68660       -1.68651        0.29008
B         -3.95800       -2.54563       -0.14525
B         -3.99393       -0.89765        0.29130
B         -1.25316       -2.74974        0.51131
B         -1.20256        2.65182        0.50340
B          3.26227        0.09968        0.60637
B         -1.34269       -0.42104        0.60591
B          4.49363        2.45602       -0.55024
B         -5.19695        1.66409       -0.65472
B         -5.19450        0.03704       -0.39307
B         -5.21935       -1.70883       -0.60372
B         -6.29167       -0.80249       -1.17327
B         -6.31613        0.69309       -1.22495
B          1.83515       -0.83664        0.80770
B         -2.03887        0.77358        1.79014
B          0.25520        1.84489        0.81977
B          5.84572        1.59799       -0.68886
B          6.01971        0.01060       -0.70946
B          5.86888       -1.60050       -0.69808
B         -0.79521       -1.37885        0.07693
