45
isomer_0556.log	Energy: -113675.8860626
B          2.50926        1.75965       -0.48866
B          2.42781        3.33477        0.03954
B          1.04789        4.15712        0.12330
B         -0.35078        3.38451       -0.51382
B          1.12979        0.84861       -1.04154
B         -1.78648        0.83054       -0.91145
B         -1.74793        4.14397        0.24684
B          3.95633        0.91023       -0.21568
B         -1.80189        2.53256       -0.48790
B          3.81003        2.53706        0.29213
B         -0.34131        4.74546        0.35272
B         -3.09200        3.28051        0.26625
B         -3.17335        1.68036       -0.25969
B         -4.53265        0.79788        0.23701
B         -0.31280       -1.83062       -1.08776
B         -1.72469       -2.55127       -0.43117
B         -3.12893       -1.73315       -0.22090
B         -4.54716       -0.89407        0.14430
B         -4.32670       -2.49953        0.76995
B         -3.00889       -3.34054        0.27800
B         -1.64218       -4.16946        0.25872
B         -0.26913       -3.40234       -0.53791
B         -0.22002       -4.74733        0.35446
B          2.51365       -3.30388        0.03697
B          1.15655       -4.14891        0.10979
B          2.56310       -1.73057       -0.53032
B          3.86957       -2.48514        0.27595
B          3.98395       -0.84564       -0.22441
B          1.18586       -2.57776       -0.78855
B          1.11932        2.58975       -0.76489
B         -3.29380       -0.01573       -0.60965
B          1.16989       -0.85070       -1.06764
B         -4.40728        2.44465        0.74891
B          5.06138        1.73855        0.86381
B          5.19611        0.04434        0.52205
B          5.10459       -1.65192        0.84511
B          6.10525       -0.70676        1.60498
B          6.08517        0.81398        1.61182
B         -1.71794       -0.84328       -0.78751
B          2.60969        0.01596       -0.74589
B         -0.36915        1.82507       -1.11666
B         -5.47342        1.51867        1.30131
B         -5.62018       -0.03324        1.30422
B         -5.37351       -1.56945        1.33725
B         -0.34302       -0.00289       -1.09342
