45
isomer_0557.log	Energy: -113387.7655831
B         -2.46179        1.73645        0.56876
B         -2.45970        3.45291        0.03292
B         -1.10343        4.21967       -0.14571
B          0.34202        3.46113        0.42164
B         -1.13791        1.02814        1.15075
B          1.70294        0.88427        0.84533
B          1.70745        4.18678       -0.38687
B         -3.79153        0.95984        0.12845
B          1.75323        2.58413        0.46879
B         -3.74581        2.59322       -0.15413
B          0.31576        4.78163       -0.48695
B          3.04251        3.29397       -0.39292
B          3.07965        1.72152        0.11860
B          4.42809        0.77419       -0.32299
B          0.19398       -1.80125        1.11878
B          1.62993       -2.52637        0.63443
B          3.04236       -1.69901        0.32302
B          4.48872       -0.85209        0.00452
B          4.29750       -2.49742       -0.55071
B          2.96467       -3.28166       -0.10162
B          1.59458       -4.07478       -0.26900
B          0.14499       -3.26156        0.19031
B          0.25329       -4.63597       -0.64125
B         -2.52889       -3.27755       -0.59339
B         -1.18708       -4.08209       -0.66835
B         -2.49963       -1.71380        0.59026
B         -3.70604       -2.31456       -0.51450
B         -3.76706       -0.81099        0.09947
B         -1.50057       -3.13387        0.66803
B         -1.14480        2.70382        0.77335
B          3.19037        0.01982        0.57947
B         -1.37824       -0.56123        1.30163
B          4.34011        2.42608       -0.84897
B         -5.04011        1.77428       -0.71110
B         -5.06418        0.11298       -0.40283
B         -5.05021       -1.49095       -0.88954
B         -6.11255       -0.58612       -1.49119
B         -6.08652        0.89977       -1.43094
B          1.58456       -0.78465        0.81217
B         -1.32109       -2.03900        1.76723
B          0.36193        1.93380        1.11545
B          5.43740        1.47687       -1.32803
B          5.60502       -0.06871       -1.23189
B          5.36970       -1.59624       -1.12263
B          0.21638        0.06456        0.97213
