45
isomer_0559.log	Energy: -113473.5824829
B         -2.41953        1.74191        0.30701
B         -2.24438        3.39250       -0.31180
B         -0.83705        4.09400       -0.43163
B          0.55983        3.30359        0.34734
B         -1.04192        0.80959        0.48253
B          1.88705        0.76369        0.88534
B          2.03072        3.98293       -0.22522
B         -3.90304        1.16147        0.35084
B          1.96736        2.39998        0.54934
B         -3.67886        2.61136       -0.43828
B          0.65151        4.57379       -0.58838
B          3.39937        3.13851       -0.04836
B          3.39211        1.55944        0.51085
B          4.77576        0.54931        0.31413
B          0.18907       -1.74863        1.24331
B          1.53398       -2.48256        0.32137
B          3.00419       -1.80130        0.20467
B          4.40386       -0.99836       -0.24536
B          4.16217       -2.56082       -0.87875
B          2.66217       -3.24447       -0.61113
B          1.16811       -3.71782       -0.79656
B         -0.05936       -3.15210        0.34214
B         -0.38111       -3.98127       -1.00502
B         -2.82153       -3.09041        0.40537
B         -1.65929       -3.94160       -0.16323
B         -2.63596       -1.41146        0.53890
B         -4.14496       -2.11766        0.16768
B         -4.02914       -0.51096        0.47893
B         -1.38132       -2.30998       -0.55526
B         -0.96039        2.49443        0.12169
B          3.35093       -0.20226        0.82794
B         -1.07084       -0.85632        0.29136
B          4.68556        2.24898       -0.29999
B         -5.11405        2.01368       -0.66160
B         -5.30471        0.39595       -0.14452
B         -5.36598       -1.30401       -0.34791
B         -6.45837       -0.32170       -0.98885
B         -6.37531        1.16309       -1.07319
B          1.75447       -0.93584        1.07824
B         -1.38709       -2.43542        1.25340
B          0.44416        1.66164        0.77322
B          5.70193        1.21005       -0.82016
B          5.81065       -0.29288       -0.93876
B          5.43143       -1.81401       -1.16589
B          0.30778       -0.03808        0.94423
