45
isomer_0562.log	Energy: -113595.6840579
B          2.65754       -1.74117        0.20954
B          2.68121       -3.36386        0.03465
B          1.31259       -4.13981       -0.04809
B         -0.13705       -3.26349        0.20436
B          2.46958       -0.03131        0.41900
B         -1.71629       -0.82719        0.65699
B         -1.50739       -4.16372       -0.41649
B          3.96662       -0.80434        0.01299
B         -1.58194       -2.45567        0.12715
B          4.10581       -2.48681       -0.10387
B         -0.07645       -4.73856       -0.36907
B         -2.90704       -3.36280       -0.43865
B         -3.08557       -1.79699        0.12549
B         -4.60515       -1.04005        0.05711
B         -0.44176        1.79671        0.98303
B         -1.90767        2.48870        0.50130
B         -3.27866        1.62211        0.42066
B         -4.58978        0.64245       -0.10089
B         -4.59453        2.30388       -0.54161
B         -3.26698        3.18242       -0.17586
B         -1.93764        4.06657       -0.27943
B         -0.47929        3.38104        0.45075
B         -0.54273        4.64957       -0.52636
B          2.29082        3.35866       -0.37563
B          0.88838        4.11837       -0.40114
B          2.35219        1.68222        0.12997
B          3.71512        2.64497       -0.43019
B          3.83814        0.98831       -0.07994
B          1.01817        2.58259        0.44039
B          1.29396       -2.35139        0.63616
B         -3.31417       -0.10134        0.67965
B          1.02479        0.91759        0.78758
B         -4.29825       -2.60857       -0.72882
B          5.45066       -1.56281       -0.43378
B          5.25614        0.18664       -0.34159
B          5.17942        1.90372       -0.58096
B          6.49591        0.99352       -0.90543
B          6.59166       -0.54755       -0.85949
B         -1.88538        0.78647        1.13733
B          1.13011       -0.78492        1.24630
B         -0.25385       -1.63449        0.60591
B         -5.45802       -1.69814       -1.11654
B         -5.77927       -0.19928       -1.01097
B         -5.69156        1.36121       -0.96824
B         -0.38239        0.04652        1.36672
