45
isomer_0565.log	Energy: -113460.8994774
B          2.11449        1.78733       -0.16459
B          1.84186        3.36602        0.22138
B          0.39449        4.05901        0.16012
B         -0.88933        3.10228       -0.44288
B          0.81402        0.64742       -0.75005
B         -2.07190        0.53598       -0.97358
B         -2.38800        3.83374       -0.03070
B          3.69764        1.25015       -0.08358
B         -2.25878        2.17341       -0.65691
B          3.33377        2.80056        0.48033
B         -1.05569        4.56210        0.18146
B         -3.69528        2.87964       -0.07326
B         -3.65191        1.29997       -0.52360
B         -4.95425        0.23804       -0.16633
B         -0.44210       -1.54987       -1.50557
B         -1.34037       -2.36990       -0.23385
B         -2.90176       -1.90981       -0.02124
B         -4.40870       -1.24371        0.44134
B         -3.85828       -2.66015        1.22687
B         -2.30583       -3.12049        0.90263
B         -0.73278       -3.36636        0.98588
B          0.38502       -2.75413       -0.36024
B          0.73707       -3.37522        1.12553
B          3.37333       -3.10666       -0.46487
B          2.02665       -3.14774        0.36935
B          2.79209       -1.55952       -0.48365
B          4.42450       -2.05917        0.04579
B          4.04198       -0.42732       -0.15802
B          1.99571       -2.81263       -1.36596
B          0.62964        2.37813       -0.41815
B         -3.51138       -0.41730       -0.75802
B          1.18947       -0.95608       -1.04064
B         -4.92870        1.95404        0.37207
B          4.78828        2.28506        0.86864
B          5.11184        0.63613        0.55198
B          5.45095       -1.02508        0.68544
B          6.37436        0.09142        1.35604
B          6.09434        1.58062        1.39360
B         -1.93579       -1.02439       -1.14881
B          2.42094        0.12714       -0.57074
B         -0.69912        1.42813       -0.83820
B         -5.77731        0.89432        1.05382
B         -5.74454       -0.61418        1.28905
B         -5.20235       -2.05359        1.56570
B          0.72169       -2.35735       -2.04362
