45
isomer_0567.log	Energy: -112253.4511913
B          2.62842        1.77221       -0.43522
B          2.61287        3.40903       -0.05026
B          1.20261        4.23185        0.19658
B         -0.25092        3.39446       -0.35447
B          1.17281        0.87447       -0.74202
B         -1.70211        0.89094       -0.82413
B         -1.64405        4.17146        0.33821
B          4.09119        0.90465       -0.36585
B         -1.62969        2.49395       -0.25884
B          4.02428        2.59498        0.09602
B         -0.22213        4.84123        0.47804
B         -3.07200        3.31781        0.35168
B         -3.09163        1.69795       -0.21956
B         -4.54701        0.87695        0.27633
B         -0.25613       -1.65842       -0.89978
B         -1.63476       -2.36176       -0.27413
B         -3.09503       -1.56298       -0.22982
B         -4.54870       -0.74208        0.27123
B         -4.38245       -2.30067        0.51136
B         -3.07879       -3.18644        0.33120
B         -1.65262       -4.04296        0.31235
B         -0.25786       -3.26453       -0.37544
B         -0.23210       -4.71656        0.44795
B          2.60589       -3.28698       -0.07134
B          1.19391       -4.10840        0.17032
B          2.62486       -1.64781       -0.44598
B          4.01899       -2.47682        0.08005
B          4.08943       -0.78375       -0.37116
B          1.19368       -2.47009       -0.60956
B          1.19897        2.59849       -0.59360
B         -3.17702        0.16882       -0.62091
B          1.17112       -0.74512       -0.74712
B         -4.37752        2.43364        0.52626
B          5.34829        1.78728        0.59598
B          5.34344        0.15686        0.35693
B          5.34467       -1.67504        0.58508
B          6.51169       -0.72335        1.18893
B          6.51331        0.82937        1.19382
B         -1.70383       -0.75508       -0.82932
B          0.46989       -2.56028        0.25418
B         -0.25253        1.79169       -0.88892
B         -5.88661        1.72350        0.73997
B         -6.08338        0.01027        0.79981
B         -5.88739       -1.71992        0.79972
B         -0.69405       -0.18281       -0.69459
