45
isomer_0568.log	Energy: -112635.2152308
B         -2.84796       -1.74975       -0.34514
B         -2.61671       -3.45010       -0.00208
B         -1.13477       -4.25923        0.19139
B          0.30279       -3.45078       -0.35456
B         -0.87580       -0.39017       -0.78112
B          1.81343       -0.84765       -0.84163
B          1.67964       -4.18325        0.33335
B         -4.10210       -0.85716       -0.26903
B          1.71712       -2.53352       -0.25771
B         -4.08351       -2.55222        0.17549
B          0.29209       -4.79830        0.45589
B          3.07641       -3.36343        0.35944
B          3.15843       -1.74047       -0.21336
B          4.61460       -0.89815        0.27670
B          0.42702        1.82566       -0.87741
B          1.83333        2.49006       -0.24149
B          3.23321        1.63898       -0.20851
B          4.63227        0.76156        0.27248
B          4.56577        2.34782        0.56197
B          3.22547        3.25629        0.36029
B          1.84635        4.14747        0.35997
B          0.45200        3.44196       -0.31602
B          0.47218        4.79454        0.48850
B         -2.39497        3.51565        0.04272
B         -0.95970        4.29469        0.24076
B         -2.38123        1.92330       -0.34089
B         -3.87761        2.62575        0.20042
B         -4.03533        0.89838       -0.26353
B         -0.97607        2.72097       -0.53829
B         -1.08908       -2.72690       -0.56871
B          3.28582       -0.11649       -0.61164
B         -0.94909        1.01173       -0.75956
B          4.48459       -2.51052        0.56065
B         -5.33123       -1.69349        0.70005
B         -5.25815       -0.05031        0.46870
B         -5.17824        1.74024        0.68812
B         -6.28495        0.81704        1.28218
B         -6.39197       -0.68464        1.30851
B          1.85167        0.85647       -0.82142
B         -2.85814        0.91152       -1.40283
B          0.44286       -1.67843       -0.93116
B          5.83119       -1.67346        0.73455
B          6.02288       -0.06882        0.77363
B          5.88544        1.53575        0.78013
B         -1.51995       -1.27861       -0.66981
