45
isomer_0569.log	Energy: -113306.7703738
B         -2.30171        1.56904        0.37572
B         -2.06150        3.28668       -0.36270
B         -0.66773        3.88718       -0.49155
B          0.70367        3.04328        0.05833
B         -0.92147        0.64208        0.61323
B          2.02716        0.64423        0.93814
B          2.15154        3.88628       -0.21689
B         -3.85295        1.29147        0.37029
B          2.06628        2.23184        0.57107
B         -3.45948        2.73614       -0.24219
B          0.79931        4.48619       -0.56441
B          3.51520        3.06223        0.00746
B          3.55505        1.49538        0.52921
B          4.95724        0.49495        0.40189
B          0.44721       -1.32171        1.42978
B          1.49027       -2.24951        0.26579
B          3.07805       -1.76948        0.27289
B          4.50461       -1.01657       -0.21559
B          4.10982       -2.49902       -0.94470
B          2.54481       -3.03271       -0.75606
B          1.04681       -3.33757       -0.92066
B         -0.18010       -2.69095        0.31918
B         -0.48580       -3.55293       -1.14752
B         -3.13483       -3.02362       -0.08058
B         -1.84178       -3.82167       -0.53190
B         -2.73215       -1.34760        0.29500
B         -4.29247       -1.93216       -0.12801
B         -4.07853       -0.36501        0.23520
B         -1.91203       -2.76415        1.09417
B         -0.79998        2.19579        0.08428
B          3.54681       -0.21689        0.94754
B         -1.13258       -0.98977        0.55929
B          4.81211        2.23739       -0.27334
B         -5.05291        2.26514       -0.41349
B         -5.33618        0.65753        0.03319
B         -5.54449       -0.95769       -0.42352
B         -6.56779        0.13347       -0.88547
B         -6.36429        1.61560       -0.85096
B          2.00346       -0.94444        1.28232
B         -1.56700       -2.18721       -0.68682
B          0.61280        1.38531        0.61633
B          5.76060        1.16851       -0.82744
B          5.86983       -0.33258       -0.96726
B          5.42170       -1.82925       -1.24565
B         -0.73658       -2.23324        1.87641
