45
isomer_0057.log	Energy: -113441.9042242
B         -2.46700       -1.74502       -0.39650
B         -2.64061       -3.19358        0.80295
B         -1.36116       -4.09977        0.81814
B         -0.06227       -3.24331       -0.39256
B         -1.27984       -0.63855       -1.02908
B          1.68789       -0.78282       -1.00920
B          1.40066       -3.97506        0.24329
B         -3.68956       -0.65867       -0.00616
B          1.56444       -2.48374       -0.56926
B         -3.72161       -2.13891        0.66073
B          0.07362       -4.49642        0.66878
B          2.84606       -3.26305        0.16343
B          3.03349       -1.73286       -0.32102
B          4.41737       -0.89146        0.20999
B          0.39201        1.88209       -0.97045
B          1.83449        2.55501       -0.44711
B          3.20358        1.68777       -0.14787
B          4.64213        0.74572       -0.04743
B          4.48651        2.37724        0.70070
B          3.17521        3.25479        0.36859
B          1.81001        4.13300        0.43772
B          0.42430        3.42504       -0.33117
B          0.42764        4.74834        0.57092
B         -2.39369        3.44081        0.09376
B         -1.00386        4.20913        0.27603
B         -2.46480        1.81185       -0.49417
B         -3.81480        2.67763        0.13008
B         -3.74643        1.00590       -0.02533
B         -1.10182        2.68065       -0.58035
B         -1.80598       -3.42529       -0.58730
B          3.25528       -0.01515       -0.65246
B         -1.15091        0.95483       -1.04636
B          4.28083       -2.54962        0.58836
B         -5.15166       -1.32820        0.70851
B         -5.18518        0.21688        0.08715
B         -5.13993        1.91915        0.49558
B         -6.23988        0.99423        1.08121
B         -6.35491       -0.48879        1.04256
B          1.77113        0.86672       -0.71878
B         -1.16064       -2.29124       -1.42171
B          0.28440       -1.65538       -1.30519
B          5.45950       -1.73743        1.07398
B          5.70064       -0.19306        1.10013
B          5.51550        1.34613        1.14747
B          0.24987        0.09449       -0.97062
