45
isomer_0572.log	Energy: -113393.4132461
B          2.37829       -1.49078        0.55627
B          2.35621       -3.07301       -0.50897
B          1.03312       -3.83303       -0.79867
B         -0.41774       -3.46827        0.19317
B          0.97068       -1.01865        1.14178
B         -1.72062       -0.83880        1.08821
B         -1.80532       -3.82021       -0.81764
B          3.88689       -0.82095        0.29465
B         -1.80241       -2.46804        0.24768
B          3.63982       -2.23922       -0.41128
B         -0.39341       -4.24744       -1.19690
B         -3.17597       -3.04563       -0.48160
B         -3.13477       -1.55049        0.21543
B         -4.47122       -0.57973       -0.15532
B         -0.13600        1.74769        0.88981
B         -1.54493        2.52369        0.25850
B         -3.00510        1.80856        0.21636
B         -4.54646        1.05366        0.17188
B         -4.28376        2.63231       -0.57428
B         -2.84887        3.35129       -0.40252
B         -1.40620        4.02802       -0.59188
B         -0.02165        3.25663        0.21478
B          0.02796        4.41425       -0.88421
B          2.75973        3.08437       -0.30504
B          1.43036        3.82735       -0.55906
B          2.73460        1.39373        0.51798
B          4.07873        2.31231       -0.17909
B          4.21399        0.85287        0.47512
B          1.37329        2.21039        0.10662
B          1.04206       -2.49000        0.24638
B         -3.18164        0.12573        0.68257
B          1.33899        0.63022        0.75246
B         -4.57158       -2.21301       -0.60808
B          5.12346       -1.66684       -0.60664
B          5.41590       -0.13623        0.02521
B          5.50919        1.51411       -0.38369
B          6.54573        0.55496       -0.98103
B          6.36437       -0.91235       -1.09099
B         -1.64384        0.89313        0.80927
B         -0.19209        0.22825        1.54434
B         -0.40950       -2.19079        1.24308
B         -5.73418       -1.28734       -0.86074
B         -5.81082        0.26613       -0.85927
B         -5.46580        1.76293       -0.93935
B         -0.49949       -1.08176        2.30471
