45
isomer_0573.log	Energy: -113675.8864460
B         -2.56208       -1.73075       -0.52880
B         -2.51267       -3.30426        0.03712
B         -1.15533       -4.14935        0.10970
B          0.26998       -3.40253       -0.53741
B         -1.16947       -0.85076       -1.06809
B          1.71863       -0.84329       -0.78960
B          1.64339       -4.16936        0.25880
B         -3.98351       -0.84622       -0.22385
B          1.72545       -2.55096       -0.43133
B         -3.86906       -2.48594        0.27617
B          0.22146       -4.74809        0.35361
B          3.00974       -3.33977        0.27839
B          3.12980       -1.73283       -0.22149
B          4.54698       -0.89296        0.14555
B          0.36849        1.82544       -1.11670
B          1.80115        2.53294       -0.48806
B          3.17300        1.68109       -0.25993
B          4.53241        0.79897        0.23638
B          4.40617        2.44519        0.74954
B          3.09094        3.28118        0.26642
B          1.74684        4.14438        0.24674
B          0.34996        3.38502       -0.51410
B          0.34022        4.74564        0.35302
B         -2.42866        3.33424        0.04016
B         -1.04893        4.15698        0.12345
B         -2.50969        1.75926       -0.48856
B         -3.81085        2.53656        0.29208
B         -3.95668        0.90953       -0.21588
B         -1.12009        2.58978       -0.76484
B         -1.18505       -2.57785       -0.78841
B          3.29349       -0.01544       -0.60906
B         -1.13013        0.84874       -1.04234
B          4.32768       -2.49889        0.76994
B         -5.10440       -1.65292        0.84509
B         -5.19567        0.04346        0.52257
B         -5.06207        1.73784        0.86328
B         -6.08597        0.81292        1.61125
B         -6.10564       -0.70794        1.60444
B          1.78540        0.83062       -0.91014
B         -2.60954        0.01571       -0.74560
B          0.31354       -1.83085       -1.08760
B          5.37484       -1.56889        1.33709
B          5.62042       -0.03239        1.30390
B          5.47274        1.51952        1.30129
B          0.34276       -0.00275       -1.09418
