45
isomer_0575.log	Energy: -113313.5266308
B          2.62454       -1.32615        0.26340
B          2.99397       -3.00588       -0.18276
B          1.70846       -3.80743       -0.60212
B          0.08045       -2.75191        0.31194
B          1.02523       -1.06200        0.67224
B         -2.05401       -0.94145        1.29672
B         -1.18768       -3.32334       -0.94636
B          4.02783       -0.37811        0.17929
B         -1.60248       -2.28238        0.28957
B          4.18605       -1.93955       -0.21360
B          0.34128       -3.53096       -1.18787
B         -2.68286       -2.99616       -0.75421
B         -3.15742       -1.71034        0.25844
B         -4.55251       -0.88621       -0.19617
B         -0.52788        1.35804        0.60449
B         -1.95942        2.22717        0.49740
B         -3.47280        1.57104        0.52523
B         -4.92894        0.64605        0.42396
B         -4.70518        2.36764       -0.26908
B         -3.37864        3.13398       -0.00840
B         -1.99414        3.90315       -0.25189
B         -0.56873        3.01143        0.02432
B         -0.62308        4.46944       -0.57485
B          2.20867        3.21379       -0.36684
B          0.82267        3.83226       -0.50495
B          2.40571        1.48538        0.37603
B          3.59689        2.68569       -0.19631
B          3.94848        1.24859        0.43569
B          0.90541        2.11517        0.05747
B          1.82262       -2.76692        1.03450
B         -3.54143       -0.13422        0.94974
B          1.00622        0.59787        0.61947
B         -4.22721       -2.37931       -0.93990
B          5.48147       -1.05326       -0.47074
B          5.39757        0.54727        0.09720
B          5.19386        2.17656       -0.29153
B          6.46226        1.49163       -0.75889
B          6.55387        0.00730       -0.90670
B         -1.96864        0.65310        0.92360
B          1.41877       -2.15448       -0.69905
B         -0.56227       -1.49531        1.51122
B         -5.51740       -1.65579       -1.21828
B         -5.90473       -0.14709       -0.92514
B         -5.72751        1.35104       -0.79248
B          0.63266       -2.36534        1.90620
