45
isomer_0576.log	Energy: -113429.4446208
B          2.51174       -1.65616        0.25883
B          2.66618       -3.31966        0.34762
B          1.31310       -4.08563        0.07165
B         -0.17509       -3.28622        0.38142
B          1.26832       -0.68246        0.79391
B         -1.76464       -0.90689        1.01731
B         -1.47712       -4.12370       -0.33738
B          3.77305       -0.84971       -0.32054
B         -1.67578       -2.54896        0.44465
B          3.96053       -2.45443       -0.00687
B         -0.07077       -4.70143       -0.33367
B         -2.91401       -3.29085       -0.39513
B         -3.08732       -1.77688        0.20565
B         -4.45729       -0.87863       -0.30022
B         -0.27364        1.67591        0.94696
B         -1.77894        2.44866        0.55231
B         -3.19613        1.65578        0.36125
B         -4.61424        0.75853        0.08804
B         -4.43052        2.40538       -0.51916
B         -3.09426        3.25890       -0.04746
B         -1.67734        4.10254       -0.04516
B         -0.28222        3.28771        0.51438
B         -0.28424        4.73837       -0.12150
B          2.45901        3.31907       -0.12638
B          1.14210        4.12835        0.01588
B          2.20229        1.49573       -0.32789
B          3.68295        2.45562       -0.46076
B          3.67640        0.85347       -0.63985
B          1.28423        2.46980        0.75298
B          1.24466       -2.50209        0.88498
B         -3.30487       -0.10690        0.70062
B          0.74743        0.84629       -0.35237
B         -4.29390       -2.52036       -0.81734
B          5.31801       -1.58692       -0.35598
B          5.04091       -0.00647       -0.91162
B          5.13017        1.67676       -0.74429
B          6.44078        0.85088       -0.74858
B          6.51692       -0.62571       -0.54959
B         -1.78892        0.72257        0.79566
B          1.29459        0.86438        1.29464
B         -0.25411       -1.75345        1.10306
B         -5.45592       -1.63523       -1.28623
B         -5.64953       -0.10223       -1.22330
B         -5.39174        1.43294       -1.15359
B         -0.28083       -0.04667        0.59307
