45
isomer_0577.log	Energy: -113548.9939805
B          1.59133       -1.39545        0.69476
B          1.03427       -2.13042       -1.28877
B         -0.40384       -2.81207       -1.19722
B         -0.61084       -3.41260        0.62632
B          0.06160       -0.25404        1.12314
B         -1.68307       -0.61664        1.13845
B         -2.17596       -3.61478        0.76213
B          3.13677       -0.78306        0.30653
B         -1.73947       -1.98961       -0.03914
B          2.46276       -2.31417       -0.59406
B         -1.83242       -3.41845       -0.90664
B         -3.29857       -2.87100       -0.17155
B         -3.16341       -1.19371        0.34978
B         -4.30879       -0.12145       -0.16905
B          0.31595        1.44635        0.49285
B         -0.96152        2.49235        0.17298
B         -2.55276        2.09252        0.15993
B         -4.18364        1.52606        0.18634
B         -3.63692        3.09167       -0.62112
B         -2.14973        3.61048       -0.36895
B         -0.60207        4.19519       -0.30517
B          0.60033        3.08583        0.06490
B          0.88356        4.57714       -0.25780
B          3.42869        2.72303        0.11123
B          2.23450        3.70679       -0.04819
B          3.15818        0.98835        0.53044
B          4.67159        1.73380        0.19287
B          4.50754        0.23610        0.90169
B          1.91799        2.06669        0.42687
B          1.03925       -3.13510        0.05755
B         -2.99557        0.48165        0.76163
B          1.61144        0.40940        0.81359
B         -4.55033       -1.77971       -0.50768
B          3.85537       -1.93481       -1.13323
B          4.76119       -0.83969       -0.26465
B          5.76236        0.61925       -0.18663
B          6.15219       -0.46128       -1.15579
B          5.22474       -1.50122       -1.67406
B         -1.29079        0.95165        0.68617
B          0.61244       -2.44770        1.53842
B         -0.86760       -1.95233        1.64852
B         -5.55722       -0.70937       -0.93117
B         -5.46491        0.86381       -0.93391
B         -4.92775        2.30669       -0.99272
B         -0.06686       -1.51615        0.00041
