45
isomer_0578.log	Energy: -112554.9495797
B         -2.62969        1.70679        0.40993
B         -2.62226        3.34331        0.02348
B         -1.21589        4.17435       -0.21796
B          0.24020        3.34620        0.34025
B         -1.17008        0.81807        0.72396
B          1.70430        0.85186        0.81864
B          1.63168        4.13089       -0.34707
B         -4.08691        0.83041        0.33498
B          1.62476        2.45388        0.25151
B         -4.02811        2.52068       -0.12820
B          0.20640        4.79200       -0.49376
B          3.06477        3.28581       -0.35347
B          3.09159        1.66663        0.21939
B          4.55403        0.85391       -0.26933
B          0.27330       -1.70605        0.89039
B          1.65885       -2.40169        0.27145
B          3.11449       -1.59421        0.23278
B          4.56539       -0.76507       -0.26269
B          4.40955       -2.32485       -0.50205
B          3.11044       -3.21826       -0.32677
B          1.68935       -4.08330       -0.31335
B          0.28696       -3.31261        0.36758
B          0.27351       -4.76553       -0.45453
B         -2.57524       -3.35251        0.05097
B         -1.15733       -4.16567       -0.18373
B         -2.60568       -1.71314        0.42396
B         -3.99249       -2.55098       -0.10738
B         -4.07506       -0.85795        0.34191
B         -1.17033       -2.52667        0.59459
B         -1.20592        2.54177        0.57378
B          3.18438        0.13841        0.62257
B         -1.15871       -0.80146        0.73061
B          4.37631        2.40933       -0.52149
B         -5.34505        1.70459       -0.63319
B         -5.33148        0.07445       -0.39256
B         -5.32074       -1.75763       -0.61898
B         -6.49078       -0.81351       -1.22884
B         -6.50168        0.73916       -1.23521
B          1.71586       -0.79411        0.82540
B         -0.76861        0.14455        1.64999
B          0.24907        1.74396        0.87623
B          5.89055        1.70805       -0.72791
B          6.09784       -0.00403       -0.78525
B          5.91223       -1.73536       -0.78438
B          0.52625       -0.73447       -0.68623
