45
isomer_0058.log	Energy: -112936.1651225
B         -2.48188        1.75685        0.40634
B         -2.38820        3.40274        0.01460
B         -0.96886        4.18105       -0.19458
B          0.42865        3.35703        0.35404
B         -1.09067        0.88776        0.72640
B          1.80229        0.83409        0.82643
B          1.82880        4.09307       -0.31095
B         -3.93207        0.96466        0.30694
B          1.79297        2.45470        0.26901
B         -3.76852        2.59339       -0.14224
B          0.42115        4.71437       -0.44442
B          3.22366        3.23399       -0.32990
B          3.21633        1.61052        0.22670
B          4.64159        0.73360       -0.25123
B          0.25088       -1.74857        0.96980
B          1.63012       -2.46448        0.21964
B          3.09640       -1.68861        0.19937
B          4.55682       -0.88943       -0.25252
B          4.35937       -2.48834       -0.55717
B          2.94489       -3.32322       -0.38445
B          1.48415       -4.10093       -0.37481
B          0.13782       -3.30800        0.33639
B          0.02795       -4.64275       -0.48315
B         -2.73177       -3.23543       -0.03954
B         -1.36709       -4.04873       -0.23770
B         -2.78093       -1.58944        0.34739
B         -4.10567       -2.35495       -0.20833
B         -4.05153       -0.72980        0.29009
B         -1.31319       -2.44755        0.56073
B         -1.05769        2.57629        0.57421
B          3.24114        0.04663        0.61225
B         -1.17583       -0.59556        0.71048
B          4.59037        2.35382       -0.52543
B         -5.09728        1.89285       -0.66183
B         -5.19018        0.24080       -0.42810
B         -5.28404       -1.49436       -0.67412
B         -6.31063       -0.47883       -1.25551
B         -6.26200        1.00260       -1.26078
B          1.75298       -0.78722        0.80337
B         -2.37049       -0.91088        1.68050
B          0.37593        1.75239        0.88767
B          5.91052        1.44560       -0.68510
B          5.99409       -0.13529       -0.73046
B          5.76092       -1.72590       -0.75409
B          0.25871       -0.94052       -0.13593
