45
isomer_0580.log	Energy: -113618.5965834
B         -2.30702       -1.62487       -0.48785
B         -2.44259       -3.33074       -0.33830
B         -1.20199       -4.24043       -0.60958
B          0.24185       -3.40798       -0.90093
B         -1.22094       -0.84074       -1.58488
B          1.51368       -0.83913       -0.60142
B          1.55755       -4.23477       -0.12729
B         -3.20128       -0.88502        0.68675
B          1.60391       -2.52834       -0.54049
B         -3.60566       -2.45875        0.32419
B          0.18982       -4.89096       -0.32503
B          2.89318       -3.35606        0.20249
B          2.92959       -1.72931        0.00802
B          4.28974       -0.83462        0.45517
B          0.26798        1.71386       -1.23980
B          1.60526        2.52779       -0.54246
B          2.93040        1.72810        0.00620
B          4.28894        0.83280        0.45714
B          4.12878        2.52081        0.90596
B          2.89507        3.35486        0.20012
B          1.55964        4.23417       -0.12974
B          0.24338        3.40774       -0.90276
B          0.19211        4.89074       -0.32673
B         -2.44009        3.33122       -0.33639
B         -1.19999        4.24066       -0.61001
B         -2.30546        1.62535       -0.48558
B         -3.60214        2.45984        0.32866
B         -3.19805        0.88535        0.69049
B         -1.24824        2.60047       -1.30152
B         -1.24909       -2.60045       -1.30181
B          3.01817       -0.00074       -0.31993
B         -1.22101        0.84103       -1.58451
B          4.12772       -2.52215        0.90716
B         -4.71588       -1.68043        1.12335
B         -4.48404        0.00108        1.32099
B         -4.71162        1.68342        1.12992
B         -5.83756        0.74893        1.74526
B         -5.83972       -0.74495        1.74116
B          1.51439        0.83828       -0.60323
B         -1.74559       -0.00012       -0.03428
B          0.26734       -1.71431       -1.23877
B          5.12763       -1.56659        1.57489
B          5.31258       -0.00058        1.59905
B          5.12883        1.56562        1.57454
B         -0.04956       -0.00009       -0.50819
