45
isomer_0581.log	Energy: -113441.9663727
B          2.47473       -1.74108        0.39522
B          2.66149       -3.19393       -0.79483
B          1.38464       -4.10471       -0.81021
B          0.07572       -3.24245        0.39479
B          1.28533       -0.63241        1.02503
B         -1.68433       -0.78883        1.00717
B         -1.38084       -3.98072       -0.24305
B          3.68523       -0.64548       -0.00476
B         -1.55290       -2.48837        0.56645
B          3.73835       -2.13557       -0.65058
B         -0.05014       -4.50070       -0.66100
B         -2.82952       -3.27272       -0.16972
B         -3.02471       -1.74381        0.31611
B         -4.41063       -0.90711       -0.21677
B         -0.39906        1.88212        0.97175
B         -1.84833        2.55148        0.46128
B         -3.21403        1.67932        0.16414
B         -4.64414        0.72761        0.04566
B         -4.49853        2.36321       -0.68955
B         -3.19398        3.24767       -0.34881
B         -1.83428        4.13248       -0.41985
B         -0.44140        3.42798        0.34014
B         -0.45513        4.75329       -0.55950
B          2.37379        3.45199       -0.11133
B          0.97944        4.21805       -0.27774
B          2.45154        1.82415        0.46928
B          3.79740        2.69118       -0.15963
B          3.72984        1.01793       -0.01262
B          1.08878        2.68719        0.57291
B          1.81925       -3.42149        0.59266
B         -3.25488       -0.02794        0.65222
B          1.14804        0.95966        1.03593
B         -4.26504       -2.56369       -0.59917
B          5.16392       -1.31575       -0.68426
B          5.17671        0.23800       -0.08182
B          5.12717        1.93540       -0.51236
B          6.24316        1.00968       -1.06746
B          6.36848       -0.47196       -1.00487
B         -1.77388        0.86113        0.72127
B          1.16973       -2.28402        1.42046
B         -0.27766       -1.65361        1.30410
B         -5.44578       -1.75508       -1.08685
B         -5.69509       -0.21194       -1.10781
B         -5.51945        1.32894       -1.14749
B         -0.24903        0.09493        0.96546
