45
isomer_0582.log	Energy: -112759.8034470
B         -2.51608        1.79882        0.36783
B         -2.40985        3.42140       -0.02048
B         -0.97392        4.19495       -0.22815
B          0.41047        3.37419        0.32509
B         -1.15841        0.92597        0.65752
B          1.83332        0.82408        0.81419
B          1.82000        4.10030       -0.32268
B         -3.93346        0.99735        0.30017
B          1.79634        2.45723        0.25130
B         -3.77636        2.62287       -0.15576
B          0.42696        4.71929       -0.46619
B          3.22365        3.22977       -0.31944
B          3.23524        1.62645        0.23273
B          4.69939        0.74957       -0.21961
B          0.43888       -1.55828        0.87206
B          1.78676       -2.39073        0.21809
B          3.19059       -1.65576        0.22071
B          4.64692       -0.88231       -0.22416
B          4.50256       -2.45734       -0.50908
B          3.07086       -3.27359       -0.34884
B          1.58148       -4.08487       -0.37533
B          0.17251       -3.31873        0.23317
B          0.03929       -4.65604       -0.49418
B         -2.85799       -3.27338       -0.03161
B         -1.47898       -4.14786       -0.27790
B         -2.78804       -1.52463        0.31316
B         -4.11467       -2.34249       -0.14513
B         -4.05128       -0.69738        0.30800
B         -1.46735       -2.47339        0.49302
B         -1.09487        2.60567        0.53146
B          3.29136        0.05010        0.62643
B         -1.28485       -0.44174        0.60294
B          4.61855        2.35626       -0.50365
B         -5.11862        1.87386       -0.63151
B         -5.20153        0.25590       -0.37394
B         -5.32751       -1.46063       -0.59057
B         -6.34238       -0.51862       -1.14923
B         -6.29508        0.98721       -1.19219
B          1.83079       -0.79399        0.82405
B         -2.35293       -0.97139        1.73235
B          0.34279        1.76864        0.84298
B          5.95016        1.46321       -0.63999
B          6.07866       -0.11174       -0.68288
B          5.86153       -1.71526       -0.68921
B         -0.30489       -1.65292       -0.17552
