45
isomer_0583.log	Energy: -112751.2347110
B         -2.53684        1.81142        0.46786
B         -2.48641        3.45477        0.02113
B         -1.08911        4.23523       -0.22877
B          0.32752        3.44563        0.31431
B         -1.12945        0.92454        0.80601
B          1.72173        0.97727        0.83873
B          1.70592        4.19263       -0.41989
B         -3.96567        1.02845        0.35979
B          1.68645        2.56193        0.22768
B         -3.83062        2.66417       -0.10419
B          0.29210        4.80325       -0.53725
B          3.10082        3.32665       -0.41388
B          3.10474        1.74969        0.19379
B          4.57898        0.84433       -0.27254
B          0.36039       -1.72198        0.67021
B          1.70140       -2.42284        0.18857
B          3.08702       -1.59948        0.23076
B          4.50584       -0.74873       -0.24409
B          4.41661       -2.34807       -0.52839
B          3.05014       -3.23806       -0.37165
B          1.70579       -4.06467       -0.40908
B          0.33901       -3.27528        0.29020
B          0.25148       -4.80617       -0.61716
B         -2.78254       -3.21352        0.00267
B         -1.74774       -4.51610       -0.38603
B         -2.67226       -1.49757        0.46508
B         -4.04042       -2.27639       -0.10730
B         -4.03911       -0.63921        0.34837
B         -1.38209       -2.31434        0.60536
B         -1.13376        2.63361        0.59277
B          3.16629        0.22385        0.64274
B         -1.25674       -0.62837        0.83633
B          4.46697        2.47398       -0.60388
B         -5.15788        1.93059       -0.62085
B         -5.20177        0.29903       -0.37542
B         -5.28192       -1.40648       -0.61425
B         -6.33467       -0.46469       -1.23141
B         -6.30297        1.06371       -1.24920
B          1.72257       -0.68199        0.87119
B         -0.83188       -3.67283       -0.24295
B          0.31159        1.83933        0.90225
B          5.82460        1.61974       -0.77636
B          5.96454        0.02517       -0.77675
B          5.74979       -1.58802       -0.76675
B          0.06156       -1.00417        2.02225
