45
isomer_0584.log	Energy: -113464.6356091
B          2.47641        1.56116       -0.46023
B          2.74889        3.26850       -0.44790
B          1.49071        4.16829       -0.51305
B         -0.02679        3.43882       -0.81953
B          1.31671        0.82927       -1.33043
B         -1.60532        0.96515       -0.91516
B         -1.25081        4.28238        0.07289
B          3.49696        0.76425        0.46330
B         -1.43540        2.62356       -0.46531
B          3.85983        2.33180        0.16302
B          0.15021        4.86378       -0.13237
B         -2.62585        3.46247        0.40182
B         -2.82256        1.90200       -0.01802
B         -4.10893        1.00786        0.65541
B         -0.35902       -1.75437       -1.57549
B         -1.77278       -2.41937       -0.85778
B         -3.00473       -1.54949       -0.17666
B         -4.34540       -0.61395        0.28285
B         -4.28843       -2.32461        0.64805
B         -3.09677       -3.18840       -0.07699
B         -1.79451       -4.08669       -0.18214
B         -0.32238       -3.18844       -0.55072
B         -0.44052       -4.76864       -0.20312
B          2.28469       -3.41723       -0.16613
B          0.99313       -4.25943       -0.35355
B          1.85208       -1.60291        0.14029
B          3.33403       -2.54396        0.48451
B          3.23423       -0.94187        0.72344
B          1.19215       -2.56672       -1.11001
B          1.40655        2.53202       -1.24619
B         -2.98951        0.18329       -0.35342
B          1.20196       -0.83942       -1.35789
B         -3.90043        2.66815        1.08382
B          5.03220        1.43052        0.85309
B          4.56177       -0.14325        1.29889
B          4.63496       -1.81164        1.15152
B          5.93452       -1.03515        1.48502
B          6.10447        0.43385        1.34298
B         -1.44432       -0.73693       -0.31080
B         -0.19017        0.01542       -1.12764
B         -0.18605        1.80254       -1.30741
B         -4.98914        1.76224        1.70901
B         -5.26644        0.21841        1.60158
B         -5.17595       -1.35303        1.40708
B          0.13574       -1.37022        0.08940
