45
isomer_0585.log	Energy: -113518.1123658
B          2.49598        1.73754       -0.52616
B          2.54095        3.38385       -0.19928
B          1.18015        4.15449        0.04780
B         -0.30862        3.39604       -0.44169
B          0.99878        0.89719       -0.77706
B         -1.78351        0.88377       -0.83925
B         -1.63961        4.10410        0.43294
B          3.96166        0.86623       -0.38172
B         -1.73776        2.50804       -0.24323
B          3.91104        2.54510       -0.04243
B         -0.20481        4.69260        0.46786
B         -3.03487        3.29799        0.44387
B         -3.14917        1.74143       -0.13009
B         -4.57667        0.87115        0.17237
B         -0.42806       -1.60857       -0.84956
B         -1.83919       -2.40863       -0.44569
B         -3.30579       -1.64990       -0.42773
B         -4.71367       -0.77682       -0.16719
B         -4.56187       -2.41314        0.44376
B         -3.21444       -3.24775        0.05599
B         -1.86400       -4.07977        0.12014
B         -0.39249       -3.29336       -0.47854
B         -0.45532       -4.65755        0.35215
B          2.29833       -3.14337        0.39262
B          0.92640       -4.02841        0.25919
B          2.62320       -1.88307       -1.02581
B          3.65146       -2.38706        0.59350
B          3.90006       -0.98648       -0.40790
B          1.12615       -2.49369       -0.69689
B          1.13551        2.58793       -0.80228
B         -3.30938        0.07745       -0.67634
B          1.04132       -0.79692       -0.63835
B         -4.42970        2.48042        0.76923
B          5.11428        1.67429        0.51946
B          5.21533       -0.06291        0.22861
B          5.07498       -1.68078        0.79236
B          6.19773       -0.77966        1.31484
B          6.13773        0.71271        1.27920
B         -1.77017       -0.74012       -0.75704
B          2.19271       -1.41335        0.58529
B         -0.37823        1.74411       -0.97027
B         -5.61987        1.59707        1.11991
B         -5.84420        0.05281        1.00263
B         -5.62836       -1.46504        0.96434
B          2.46602       -0.00996       -0.43356
