45
isomer_0586.log	Energy: -111831.5927105
B          2.58645        1.77787       -0.42570
B          2.55717        3.41960       -0.06311
B          1.13982        4.23523        0.16638
B         -0.30505        3.37971       -0.37955
B          1.13885        0.86529       -0.72660
B         -1.73572        0.85937       -0.82144
B         -1.70692        4.15569        0.29643
B          4.05522        0.92218       -0.33818
B         -1.67759        2.47038       -0.27769
B          3.97385        2.61808        0.10037
B         -0.29060        4.83781        0.43333
B         -3.12862        3.29176        0.31529
B         -3.13380        1.66420       -0.23394
B         -4.58531        0.83925        0.26672
B         -0.27073       -1.68001       -0.85613
B         -1.64693       -2.38498       -0.22697
B         -3.11321       -1.59651       -0.19988
B         -4.57508       -0.77967        0.28363
B         -4.39847       -2.33359        0.54565
B         -3.08755       -3.21204        0.38323
B         -1.65505       -4.05816        0.38223
B         -0.26301       -3.27883       -0.31000
B         -0.23025       -4.71933        0.53316
B          2.59945       -3.27595        0.00683
B          1.19248       -4.10445        0.25350
B          2.60805       -1.64192       -0.38998
B          4.00587       -2.45337        0.15334
B          4.06589       -0.76611       -0.32054
B          1.18369       -2.47692       -0.54858
B          1.15169        2.59132       -0.60152
B         -3.20617        0.12917       -0.61484
B          1.14908       -0.75418       -0.70969
B         -4.42837        2.40040        0.49620
B          5.30152        1.82706        0.61702
B          5.30970        0.19355        0.40014
B          5.32338       -1.63502        0.65318
B          6.48067       -0.66661        1.24912
B          6.47087        0.88599        1.23290
B         -1.72533       -0.78654       -0.80425
B          1.30019       -2.26749       -1.23653
B         -0.29252        1.76986       -0.89216
B         -5.93314        1.68206        0.71297
B         -6.11758       -0.03161        0.79525
B         -5.90890       -1.76014        0.81954
B         -0.17800       -0.15240       -0.11913
