45
isomer_0587.log	Energy: -113425.3897651
B          2.58946       -1.69623        0.24045
B          2.47559       -3.32915       -0.24992
B          1.08058       -4.14400       -0.30592
B         -0.34209       -3.28029        0.13480
B          1.19018       -0.76303        0.63457
B         -1.68480       -0.71890        1.08999
B         -1.75446       -4.16505       -0.11831
B          3.95788       -0.91843        0.03668
B         -1.75319       -2.46212        0.52184
B          3.94152       -2.53053       -0.32645
B         -0.36022       -4.78555       -0.33203
B         -3.11087       -3.24027       -0.04059
B         -3.14959       -1.67230        0.43892
B         -4.45596       -0.74643       -0.15595
B         -0.30368        1.77071        0.93754
B         -1.62651        2.56187        0.23256
B         -3.02048        1.72861       -0.08837
B         -4.52448        0.91665        0.05567
B         -4.35889        2.52476       -0.72162
B         -2.97399        3.32769       -0.44631
B         -1.54699        4.14595       -0.44226
B         -0.24543        3.42844        0.50531
B         -0.12163        4.64109       -0.54389
B          2.61181        3.21894        0.02083
B          1.26930        4.07458       -0.13843
B          2.64261        1.60937        0.64740
B          3.95289        2.31067       -0.12551
B          3.96048        0.73121        0.31761
B          1.24679        2.55726        0.59261
B          1.18861       -2.52142        0.31791
B         -3.12431        0.07194        0.51249
B          1.15661        0.81019        0.94086
B         -4.52097       -2.44161       -0.36457
B          5.26471       -1.72898       -0.73042
B          5.38719       -0.09108       -0.10848
B          5.37795        1.58525       -0.32732
B          6.54824        0.73328       -0.88883
B          6.39857       -0.72929       -1.19211
B         -1.52395        0.79292        0.10024
B         -0.17757       -0.09454       -0.15703
B         -0.29056       -1.66889        0.64321
B         -5.66376       -1.54362       -0.78949
B         -5.78025        0.03226       -0.88014
B         -5.50234        1.56449       -1.01579
B         -0.32401        0.13354        1.56823
