45
isomer_0588.log	Energy: -112707.1327130
B         -2.67191        1.68403        0.40528
B         -2.66314        3.32764        0.03974
B         -1.26058        4.16592       -0.20321
B          0.20298        3.34228        0.32790
B         -1.23048        0.78100        0.69309
B          1.68310        0.82306        0.76422
B          1.58849        4.13471       -0.36422
B         -4.11627        0.81193        0.33401
B          1.59901        2.45667        0.21288
B         -4.06353        2.50229       -0.10776
B          0.15948        4.78239       -0.48477
B          3.02383        3.29374       -0.39155
B          3.06447        1.66455        0.16265
B          4.52196        0.85318       -0.34224
B          0.24128       -1.72080        0.82244
B          1.62984       -2.41216        0.17700
B          3.08464       -1.60284        0.13639
B          4.53156       -0.76535       -0.35557
B          4.37925       -2.32434       -0.61922
B          3.06783       -3.21660       -0.44125
B          1.64600       -4.08004       -0.42718
B          0.25168       -3.32058        0.27502
B          0.23087       -4.74805       -0.56207
B         -2.60805       -3.35226       -0.01633
B         -1.19637       -4.15817       -0.27294
B         -2.64424       -1.71939        0.37980
B         -4.02571       -2.54611       -0.15230
B         -4.10381       -0.87404        0.32014
B         -1.20963       -2.53472        0.52568
B         -1.25154        2.52919        0.56472
B          3.16035        0.12130        0.54752
B         -1.20196       -0.81198        0.68507
B          4.35088        2.42105       -0.58243
B         -5.37852        1.69346       -0.60944
B         -5.36104        0.06092       -0.38953
B         -5.35084       -1.75451       -0.63867
B         -6.51725       -0.81007       -1.22429
B         -6.53403        0.73269       -1.21325
B          1.69188       -0.81544        0.74754
B          0.22134        0.72118        0.56031
B          0.21793        1.73874        0.84584
B          5.83972        1.70218       -0.79876
B          6.04327        0.00545       -0.87434
B          5.85989       -1.70547       -0.89294
B          1.09739       -1.07667        2.43702
