45
isomer_0589.log	Energy: -113318.6937879
B          2.65661       -1.53842        0.52122
B          2.68762       -3.26193        0.12177
B          1.31869       -3.99246       -0.15218
B         -0.20925       -3.33660        0.42147
B          1.19170       -0.82743        0.67469
B         -1.67557       -0.79204        0.86843
B         -1.58185       -4.09745       -0.35993
B          3.98576       -0.68801        0.42020
B         -1.61646       -2.45195        0.22696
B          4.00322       -2.32325       -0.06148
B         -0.10262       -4.60072       -0.47269
B         -2.93596       -3.26137       -0.38086
B         -3.04754       -1.68489        0.20532
B         -4.46007       -0.83538       -0.22504
B         -0.35173        1.75107        0.90788
B         -1.74387        2.48866        0.31727
B         -3.13872        1.67081        0.27308
B         -4.47687        0.81392       -0.17646
B         -4.50296        2.48511       -0.53996
B         -3.11022        3.27329       -0.29465
B         -1.75481        4.13734       -0.33127
B         -0.33744        3.39831        0.36057
B         -0.33146        4.71752       -0.49712
B          2.50733        3.41865       -0.03871
B          1.11121        4.17807       -0.22800
B          2.52536        1.72685        0.41691
B          3.84655        2.57564       -0.21597
B          3.94379        0.99698        0.34867
B          1.16106        2.61203        0.53368
B          1.37469       -2.51420        0.78655
B         -3.19058       -0.02324        0.61775
B          1.10699        0.91794        0.71185
B         -4.39537       -2.49848       -0.61790
B          5.25998       -1.54113       -0.55747
B          5.18870        0.13909       -0.35235
B          5.14400        1.79715       -0.66248
B          6.30505        0.89120       -1.23739
B          6.35362       -0.60890       -1.19471
B         -1.71329        0.87810        0.89638
B          0.62277       -2.19704       -0.72869
B         -0.31750       -1.66063        0.88977
B         -5.63022       -1.62686       -0.86158
B         -5.83550       -0.02808       -0.84561
B         -5.69367        1.52755       -0.83904
B         -0.14117       -0.00484        1.35110
