45
isomer_0059.log	Energy: -113460.3077623
B         -2.57132       -1.55806       -0.58010
B         -2.59149       -3.17702        0.00687
B         -1.25557       -3.85172        0.50316
B          0.12876       -3.17151       -0.15156
B         -1.21104       -0.71461       -0.67337
B          1.69670       -0.82331       -1.06252
B          1.55379       -4.07379        0.46911
B         -3.98188       -0.74920       -0.30079
B          1.65584       -2.47682       -0.41831
B         -3.95118       -2.31514        0.09345
B          0.16413       -4.52628        0.75510
B          2.91671       -3.28310        0.30791
B          3.05902       -1.74210       -0.35110
B          4.41436       -0.85146        0.18218
B          0.35474        1.82410       -0.88148
B          1.80159        2.54596       -0.51963
B          3.18402        1.68508       -0.32797
B          4.63819        0.77951       -0.12636
B          4.46235        2.41095        0.55109
B          3.14164        3.26064        0.25775
B          1.79081        4.12904        0.39612
B          0.37617        3.37454       -0.28308
B          0.39864        4.69372        0.61642
B         -2.42346        3.36508        0.22255
B         -1.04750        4.12884        0.36734
B         -2.51421        1.72473       -0.60559
B         -3.73834        2.54142        0.27322
B         -3.91891        1.00908       -0.27701
B         -1.10529        2.52437       -0.31850
B         -1.33124       -2.65050       -1.14365
B          3.25518       -0.02406       -0.70047
B         -1.16279        0.92850       -1.00064
B          4.35509       -2.49932        0.60038
B         -5.28814       -1.48501        0.49904
B         -5.27259        0.17472        0.12038
B         -5.15485        1.78155        0.62128
B         -6.28918        0.91715        1.19226
B         -6.35345       -0.56461        1.13221
B          1.75042        0.83600       -0.84419
B         -1.17025       -2.05909        0.49930
B          0.16675       -1.74995       -0.95690
B          5.52170       -1.65794        1.01062
B          5.74193       -0.09059        0.99486
B          5.53753        1.42906        1.02657
B          0.26661        0.03116       -1.17594
