45
isomer_0590.log	Energy: -112736.8386097
B          2.59726       -1.65196        0.37043
B          2.59706       -3.28689       -0.02274
B          1.19418       -4.12466       -0.26128
B         -0.26389       -3.30685        0.30690
B          1.13423       -0.77259        0.69471
B         -1.73947       -0.82259        0.80220
B         -1.65413       -4.09636       -0.37738
B          4.04929       -0.76726        0.29255
B         -1.65370       -2.42180        0.22810
B          3.99767       -2.45592       -0.17735
B         -0.22592       -4.74899       -0.53322
B         -3.09185       -3.25916       -0.37383
B         -3.12497       -1.64252        0.20583
B         -4.59403       -0.83586       -0.27293
B         -0.32221        1.74285        0.87807
B         -1.71435        2.43338        0.26826
B         -3.16569        1.61806        0.23281
B         -4.61426        0.78300       -0.25954
B         -4.46806        2.34458       -0.49316
B         -3.17309        3.24440       -0.32003
B         -1.75673        4.11719       -0.30943
B         -0.34706        3.35144        0.36198
B         -0.34530        4.80778       -0.45417
B          2.51342        3.40840        0.03265
B          1.09002        4.21470       -0.19230
B          2.55454        1.76770        0.39872
B          3.93432        2.61534       -0.13540
B          4.02820        0.92096        0.30651
B          1.11554        2.57261        0.57917
B          1.17884       -2.49543        0.53724
B         -3.22431       -0.11650        0.61574
B          1.11400        0.84682        0.70810
B         -4.40893       -2.38923       -0.53231
B          5.30781       -1.63052       -0.68488
B          5.28639       -0.00148       -0.43746
B          5.26457        1.83143       -0.65625
B          6.43700        0.89628       -1.27527
B          6.45639       -0.65627       -1.28812
B         -1.76003        0.82325        0.81581
B          2.04957       -0.90445        1.87821
B         -0.27912       -1.70689        0.84954
B         -5.92791       -1.69545       -0.72901
B         -6.14485        0.01568       -0.77834
B         -5.96875        1.74799       -0.77115
B          0.06832       -0.31420       -0.02797
