45
isomer_0591.log	Energy: -113653.1731107
B          2.42929       -1.76551        0.25525
B          2.36646       -3.38521       -0.05769
B          0.98255       -4.20931       -0.05601
B         -0.40867       -3.42483        0.58739
B          2.52779       -0.03705        0.64663
B         -1.70003       -0.81808        0.75295
B         -1.81792       -4.16303       -0.15991
B          3.82691       -0.91166       -0.04576
B         -1.84624       -2.54189        0.59427
B          3.76890       -2.58427       -0.41313
B         -0.42550       -4.79062       -0.26366
B         -3.15387       -3.27999       -0.20259
B         -3.14508       -1.65747        0.18034
B         -4.50840       -0.76004       -0.27650
B         -0.29575        1.83909        1.09157
B         -1.70706        2.59255        0.47342
B         -3.08549        1.77732        0.14735
B         -4.51778        0.93024       -0.19147
B         -4.34862        2.54870       -0.75719
B         -2.98098        3.37995       -0.29501
B         -1.60583        4.18822       -0.26136
B         -0.23998        3.41103        0.56674
B         -0.17175        4.73905       -0.34846
B          2.55934        3.29093        0.00359
B          1.20198        4.14811       -0.06874
B          2.58429        1.73065        0.58934
B          3.91877        2.47296       -0.23253
B          3.91758        0.80885        0.05391
B          1.22683        2.58985        0.81529
B          1.09702       -2.60593        0.75121
B         -3.18389        0.05313        0.39990
B          1.18183        0.86312        1.13392
B         -4.47416       -2.42688       -0.68737
B          5.07615       -1.78146       -0.88595
B          5.23807       -0.09131       -0.47068
B          5.19184        1.63038       -0.74619
B          6.25669        0.67601       -1.42443
B          6.21272       -0.85119       -1.47761
B         -1.66898        0.86351        0.70974
B          1.09927       -0.85579        1.06979
B         -0.37408       -1.84603        1.14371
B         -5.55102       -1.48485       -1.22206
B         -5.68750        0.07920       -1.23815
B         -5.44610        1.63193       -1.27472
B         -0.31961        0.02760        1.09091
