45
isomer_0592.log	Energy: -112278.2471483
B         -2.62695       -1.59781       -0.37756
B         -2.62905       -3.22872        0.03198
B         -1.22762       -4.06386        0.28759
B          0.23388       -3.25158       -0.27974
B         -1.16201       -0.72154       -0.70159
B          1.71230       -0.77221       -0.79081
B          1.61992       -4.03399        0.42101
B         -4.07951       -0.71259       -0.31754
B          1.62311       -2.36559       -0.20123
B         -4.03066       -2.39643        0.16959
B          0.19083       -4.68523        0.57456
B          3.05757       -3.19667        0.41795
B          3.09414       -1.58592       -0.17769
B          4.56016       -0.77429        0.30204
B          0.29534        1.79214       -0.90118
B          1.68362        2.48895       -0.28973
B          3.13478        1.67423       -0.23712
B          4.58034        0.84435        0.27253
B          4.43258        2.40818        0.48956
B          3.13863        3.30603        0.29941
B          1.72229        4.17847        0.27129
B          0.31686        3.40583       -0.40111
B          0.30995        4.87029        0.40036
B         -2.54560        3.46569       -0.09006
B         -1.12368        4.27440        0.13558
B         -2.58433        1.82140       -0.43990
B         -3.96745        2.67416        0.07715
B         -4.05846        0.97542       -0.34831
B         -1.14430        2.62466       -0.61951
B         -1.20747       -2.44272       -0.52713
B          3.19591       -0.06408       -0.60227
B         -1.14183        0.89766       -0.73111
B          4.37357       -2.32500        0.57584
B         -5.34398       -1.56617        0.66070
B         -5.32115        0.06031        0.39708
B         -5.30083        1.89532        0.59760
B         -6.47699        0.96627        1.21871
B         -6.49634       -0.58608        1.24701
B          1.73281        0.87341       -0.82081
B         -0.55281       -3.16967       -1.25851
B          0.25234       -1.65715       -0.83830
B          5.89126       -1.62908        0.77495
B          6.10776        0.08249        0.80846
B          5.93157        1.81462        0.78279
B         -0.17052       -0.56789       -0.26257
