45
isomer_0593.log	Energy: -112337.6821952
B          2.59845        1.75331       -0.45271
B          2.58183        3.38667       -0.05337
B          1.17106        4.20615        0.20157
B         -0.28214        3.37247       -0.35593
B          1.14337        0.85712       -0.76649
B         -1.73162        0.87199       -0.84669
B         -1.67546        4.14221        0.34441
B          4.06195        0.88636       -0.39187
B         -1.66013        2.47003       -0.26737
B          3.99397        2.57251        0.08489
B         -0.25400        4.81188        0.48925
B         -3.10272        3.28733        0.35126
B         -3.12140        1.67254       -0.23418
B         -4.57581        0.84603        0.25536
B         -0.28363       -1.67543       -0.94563
B         -1.66131       -2.38536       -0.32533
B         -3.12219       -1.58818       -0.27311
B         -4.57620       -0.77289        0.23604
B         -4.40856       -2.33339        0.46235
B         -3.10430       -3.21649        0.27361
B         -1.67745       -4.07166        0.24635
B         -0.28375       -3.28609       -0.43542
B         -0.25631       -4.74528        0.37515
B          2.58020       -3.30890       -0.13330
B          1.16904       -4.13355        0.10201
B          2.59762       -1.66648       -0.49353
B          3.99275       -2.49896        0.02434
B          4.06154       -0.80194       -0.41202
B          1.16701       -2.48845       -0.66344
B          1.16823        2.57980       -0.60294
B         -3.20581        0.14693       -0.64891
B          1.14297       -0.76235       -0.78583
B         -4.40742        2.40061        0.51886
B          5.31894        1.76151        0.57691
B          5.31526        0.13325        0.32354
B          5.31811       -1.70058        0.53558
B          6.48473       -0.75328        1.14706
B          6.48511        0.79933        1.16559
B         -1.73201       -0.77391       -0.86634
B          0.71510       -1.77142        1.47184
B         -0.28280        1.77445       -0.90445
B         -5.91580        1.68739        0.72725
B         -6.11116       -0.02646        0.77215
B         -5.91379       -1.75642        0.75674
B          0.27854        0.09762       -0.58325
