45
isomer_0594.log	Energy: -113441.9658858
B         -2.47480       -1.74069       -0.39402
B         -2.66235       -3.19406        0.79578
B         -1.38572       -4.10505        0.81085
B         -0.07619       -3.24160       -0.39369
B         -1.28462       -0.63203       -1.02329
B          1.68425       -0.78905       -1.00883
B          1.38002       -3.97961        0.24344
B         -3.68470       -0.64477        0.00732
B          1.55300       -2.48799       -0.56706
B         -3.73904       -2.13567        0.65079
B          0.04938       -4.50006        0.66136
B          2.82887       -3.27222        0.16948
B          3.02573       -1.74421       -0.31871
B          4.41075       -0.90739        0.21634
B          0.39970        1.88207       -0.97194
B          1.84811        2.55060       -0.46028
B          3.21591        1.67960       -0.16929
B          4.64480        0.72722       -0.04455
B          4.49836        2.36214        0.68973
B          3.19440        3.24694        0.34766
B          1.83493        4.13206        0.42025
B          0.44150        3.42720       -0.33827
B          0.45577        4.75259        0.56101
B         -2.37358        3.45235        0.11170
B         -0.97894        4.21797        0.27952
B         -2.45081        1.82414       -0.46710
B         -3.79772        2.69172        0.15960
B         -3.72946        1.01872        0.01509
B         -1.08840        2.68709       -0.57255
B         -1.81978       -3.42080       -0.59157
B          3.25681       -0.02869       -0.65515
B         -1.14751        0.95948       -1.03388
B          4.26423       -2.56396        0.59932
B         -5.16475       -1.31591        0.68242
B         -5.17616        0.23835        0.08110
B         -5.12786        1.93593        0.51140
B         -6.24507        1.00990        1.06407
B         -6.36986       -0.47163        1.00113
B          1.77701        0.86089       -0.72708
B         -1.17040       -2.28383       -1.42007
B          0.27735       -1.65342       -1.30438
B          5.44433       -1.75559        1.08882
B          5.69380       -0.21255        1.11037
B          5.51853        1.32816        1.14981
B          0.25015        0.09568       -0.96665
