45
isomer_0060.log	Energy: -113675.8868507
B         -2.56258        1.73087        0.52974
B         -2.51260        3.30382       -0.03747
B         -1.15554        4.14905       -0.10972
B          0.26963        3.40266        0.53825
B         -1.16987        0.85074        1.06875
B          1.71833        0.84335        0.78976
B          1.64304        4.16948       -0.25811
B         -3.98385        0.84605        0.22469
B          1.72530        2.55109        0.43161
B         -3.86889        2.48550       -0.27618
B          0.22106        4.74793       -0.35337
B          3.00942        3.33998       -0.27791
B          3.12958        1.73291        0.22181
B          4.54674        0.89312       -0.14600
B          0.36864       -1.82541        1.11694
B          1.80132       -2.53285        0.48801
B          3.17292       -1.68079        0.25995
B          4.53212       -0.79873       -0.23715
B          4.40597       -2.44493       -0.74989
B          3.09105       -3.28104       -0.26630
B          1.74702       -4.14446       -0.24632
B          0.35018       -3.38509        0.51469
B          0.34043       -4.74581       -0.35227
B         -2.42836       -3.33441       -0.03956
B         -1.04854       -4.15703       -0.12302
B         -2.50968       -1.75951        0.48894
B         -3.81039       -2.53661       -0.29238
B         -3.95666       -0.90968        0.21591
B         -1.11977       -2.58972        0.76537
B         -1.18517        2.57757        0.78869
B          3.29362        0.01564        0.60929
B         -1.13016       -0.84858        1.04262
B          4.32711        2.49902       -0.77011
B         -5.10376        1.65262       -0.84579
B         -5.19531       -0.04353       -0.52307
B         -5.06109       -1.73787       -0.86444
B         -6.08442       -0.81290       -1.61294
B         -6.10419        0.70785       -1.60607
B          1.78566       -0.83059        0.91050
B         -2.60974       -0.01580        0.74601
B          0.31329        1.83079        1.08780
B          5.37377        1.56902       -1.33819
B          5.61960        0.03270       -1.30509
B          5.47194       -1.51913       -1.30256
B          0.34282        0.00271        1.09456
