45
isomer_0600.log	Energy: -113398.7519291
B         -2.69159       -1.73933       -0.44437
B         -2.61871       -3.37991       -0.06836
B         -1.20590       -4.16077        0.16805
B          0.27459       -3.38224       -0.35539
B         -1.21517       -0.64160       -0.75369
B          1.83840       -0.75104       -0.82236
B          1.65119       -4.13387        0.35376
B         -4.09815       -0.76244       -0.35022
B          1.74717       -2.49802       -0.22812
B         -4.07566       -2.51589        0.10347
B          0.22624       -4.72146        0.45400
B          3.10367       -3.31118        0.37916
B          3.19070       -1.68411       -0.19821
B          4.64084       -0.84137        0.27116
B          0.32538        1.77295       -0.89462
B          1.74895        2.47844       -0.26363
B          3.21452        1.65070       -0.22745
B          4.65690        0.80978        0.25978
B          4.53518        2.38873        0.52995
B          3.16271        3.26897        0.33397
B          1.73111        4.11310        0.32378
B          0.33289        3.35892       -0.35723
B          0.31140        4.71476        0.44765
B         -2.51856        3.36245       -0.03037
B         -1.12388        4.15318        0.19175
B         -2.59494        1.70959       -0.43058
B         -3.93316        2.54488        0.11987
B         -4.04779        0.91038       -0.34497
B         -1.15935        2.55934       -0.58868
B         -1.22238       -2.57819       -0.59862
B          3.29814       -0.06843       -0.61193
B         -1.17157        0.85789       -0.74669
B          4.51459       -2.44773        0.57388
B         -5.33763       -1.64775        0.59320
B         -5.28669        0.02444        0.35735
B         -5.23816        1.77627        0.59734
B         -6.36580        0.87126        1.15879
B         -6.44376       -0.64695        1.16656
B          1.82088        0.94510       -0.81371
B         -2.49958       -0.33355        0.15413
B          0.29530       -1.74639       -0.92271
B          5.87884       -1.62914        0.72393
B          6.06563        0.01432        0.76018
B          5.90619        1.60511        0.76392
B          0.37702       -0.26918       -0.73373
