45
isomer_0603.log	Energy: -113469.7537012
B         -2.78356        1.23463        0.98654
B         -3.04736        2.85062        0.53627
B         -1.87940        3.83862        0.48798
B         -0.20703        3.35064        0.99023
B         -1.32536        0.68424        1.40691
B          1.43984        1.02835        0.72975
B          0.76573        4.00188       -0.50016
B         -3.92623        0.21773        0.36247
B          0.70105        2.32040       -0.22539
B         -4.21252        1.82409        0.34703
B         -0.66092        4.36496       -0.21019
B          2.04769        3.28009       -0.91023
B          2.56718        1.98840       -0.09482
B          4.14810        1.40380       -0.41577
B          0.57799       -1.64846        1.18731
B          2.17760       -2.29451        0.83166
B          3.40453       -1.24344        0.55831
B          4.57946       -0.21524       -0.10756
B          4.77707       -1.92587       -0.34729
B          3.59474       -2.88138        0.20405
B          2.33707       -3.88496        0.17648
B          0.77490       -3.25804        0.72885
B          1.02596       -4.59939       -0.12813
B         -1.86567       -3.41470       -0.36269
B         -0.40947       -4.10543       -0.20734
B         -2.10166       -1.76450        0.00316
B         -3.27480       -2.79722       -0.74790
B         -3.69147       -1.34701       -0.04605
B         -0.70283       -2.48766        0.38586
B         -1.37562        2.19164        0.41343
B          3.15295        0.45616        0.60142
B         -0.88859       -0.70307        0.44314
B          3.45756        2.63120       -1.39681
B         -5.37489        1.01185       -0.43057
B         -4.74349       -0.44960       -0.92901
B         -4.66540       -2.15596       -1.20366
B         -5.94280       -1.33055       -1.58868
B         -6.22921        0.12802       -1.32428
B          1.91274       -0.59618        1.12125
B         -0.27565        0.86908       -0.07483
B          0.09585        1.80355        1.54391
B          4.74943        1.93390       -1.80122
B          5.39037        0.58219       -1.43012
B          5.63068       -0.91951       -1.08200
B          0.27546        0.02660        1.51868
