45
isomer_0605.log	Energy: -113675.8858486
B         -2.50982       -1.75957       -0.48994
B         -2.42798       -3.33398        0.04034
B         -1.04837       -4.15688        0.12279
B          0.35028       -3.38515       -0.51528
B         -2.60995       -0.01572       -0.74692
B          1.78561       -0.83060       -0.90968
B          1.74705       -4.14460        0.24618
B         -3.95650       -0.90972       -0.21548
B          1.80119       -2.53293       -0.48852
B         -3.80980       -2.53629        0.29347
B          0.34050       -4.74576        0.35228
B          3.09089       -3.28113        0.26646
B          3.17286       -1.68108       -0.25957
B          4.53210       -0.79868        0.23681
B          0.31331        1.83039       -1.08744
B          1.72517        2.55104       -0.43167
B          3.12950        1.73289       -0.22182
B          4.54675        0.89326        0.14634
B          4.32721        2.49933        0.77012
B          3.00932        3.33994        0.27830
B          1.64288        4.16939        0.25854
B          0.26968        3.40252       -0.53832
B          0.22081        4.74780        0.35329
B         -2.51281        3.30386        0.03663
B         -1.15578        4.14902        0.10881
B         -2.56269        1.73055       -0.53013
B         -3.86871        2.48536        0.27624
B         -3.98376        0.84593       -0.22430
B         -1.18530        2.57756       -0.78883
B         -1.12000       -2.59000       -0.76596
B          3.29330        0.01595       -0.60866
B         -1.17002        0.85085       -1.06966
B          4.40578       -2.44474        0.75006
B         -5.06070       -1.73765        0.86519
B         -5.19583       -0.04364        0.52268
B         -5.10362        1.65250        0.84585
B         -6.10374        0.70791        1.60650
B         -6.08392       -0.81273        1.61376
B          1.71799        0.84311       -0.78874
B         -1.13035       -0.84875       -1.04340
B          0.36867       -1.82553       -1.11731
B          5.47190       -1.51881        1.30240
B          5.61984        0.03305        1.30467
B          5.37430        1.56951        1.33780
B          0.34273        0.00225       -1.09387
