45
isomer_0607.log	Energy: -113473.5824258
B         -2.41995        1.74137        0.30618
B         -2.24628        3.39274       -0.31097
B         -0.83917        4.09487       -0.43139
B          0.55814        3.30345        0.34440
B         -1.04264        0.80852        0.47849
B          1.88641        0.76430        0.88396
B          2.02885        3.98457       -0.22553
B         -3.90327        1.16002        0.35192
B          1.96606        2.40098        0.54885
B         -3.68087        2.61119       -0.43555
B          0.64957        4.57571       -0.58846
B          3.39781        3.14008       -0.04918
B          3.39123        1.56098        0.50909
B          4.77572        0.55130        0.31558
B          0.18914       -1.74857        1.24164
B          1.53515       -2.48270        0.32177
B          3.00500       -1.80044        0.20551
B          4.40458       -0.99690       -0.24350
B          4.16474       -2.56000       -0.87573
B          2.66498       -3.24477       -0.60883
B          1.17127       -3.71988       -0.79436
B         -0.05810       -3.15377        0.34255
B         -0.37749       -3.98438       -1.00428
B         -2.82017       -3.09138        0.40045
B         -1.65737       -3.94291       -0.16587
B         -2.63554       -1.41259        0.53883
B         -4.14390       -2.11908        0.16520
B         -4.02879       -0.51275        0.47849
B         -1.38642       -2.43555        1.25117
B         -0.96143        2.49366        0.11784
B          3.35033       -0.20049        0.82795
B         -1.07023       -0.85726        0.28710
B          4.68486        2.25125       -0.29957
B         -5.11630        2.01318       -0.65671
B         -5.30591        0.39491       -0.14116
B         -5.36576       -1.30502       -0.34777
B         -6.45970       -0.32249       -0.98578
B         -6.37763        1.16254       -1.06797
B          1.75417       -0.93524        1.07793
B          0.30716       -0.03839        0.94238
B          0.44319        1.66100        0.76903
B          5.70222        1.21233       -0.81812
B          5.81156       -0.29076       -0.93576
B          5.43346       -1.81230       -1.16262
B         -1.37869       -2.31136       -0.55722
