45
isomer_0609.log	Energy: -111493.2044021
B          2.52916        1.78452       -0.46813
B          2.49992        3.41693       -0.06566
B          1.08302        4.22406        0.19460
B         -0.36463        3.37926       -0.36059
B          1.08081        0.87674       -0.77972
B         -1.79440        0.86763       -0.85220
B         -1.76247        4.13598        0.34493
B          4.00004        0.92976       -0.41284
B         -1.73477        2.46512       -0.27005
B          3.91921        2.61439        0.06728
B         -0.34629        4.81728        0.48723
B         -3.18249        3.26913        0.35397
B         -3.18920        1.65534       -0.23447
B         -4.63531        0.81574        0.25740
B         -0.32538       -1.66736       -0.95984
B         -1.69538       -2.38998       -0.33720
B         -3.16275       -1.60519       -0.27956
B         -4.62218       -0.80309        0.23501
B         -4.44084       -2.36255        0.45792
B         -3.12973       -3.23432        0.26403
B         -1.69584       -4.07743        0.23134
B         -0.31062       -3.27892       -0.45267
B         -0.26876       -4.73934        0.35506
B          2.55423       -3.27826       -0.15825
B          1.15067       -4.11516        0.07926
B          2.55691       -1.63508       -0.51542
B          3.96035       -2.45679       -0.00286
B          4.01374       -0.75843       -0.43619
B          1.13278       -2.46871       -0.68307
B          1.09167        2.59925       -0.61298
B         -3.26193        0.12985       -0.65185
B          1.09394       -0.74265       -0.80212
B         -4.47925        2.37118        0.52339
B          5.25225        1.81362        0.55422
B          5.26154        0.18587        0.29778
B          5.28034       -1.64827        0.50634
B          6.44062       -0.69237        1.11649
B          6.42802        0.86016        1.13796
B         -1.78105       -0.77818       -0.87496
B          1.60846       -1.69640        1.92626
B         -0.35337        1.78232       -0.91213
B         -5.98103        1.64494        0.73446
B         -6.16189       -0.07057        0.77664
B         -5.95006       -1.79878        0.75742
B          1.69195       -0.34123       -0.53622
