45
isomer_0061.log	Energy: -111078.7237961
B          2.62675       -1.53012        0.30887
B          2.65087       -3.15449       -0.12522
B          1.26059       -4.00717       -0.38376
B         -0.20909       -3.22606        0.20575
B          1.15092       -0.68143        0.65611
B         -1.72157       -0.77766        0.76425
B         -1.58795       -4.01913       -0.49718
B          4.06514       -0.62184        0.25223
B         -1.61222       -2.36048        0.15013
B          4.03858       -2.29877       -0.25987
B         -0.15019       -4.64594       -0.67033
B         -3.03817       -3.20417       -0.47165
B         -3.09513       -1.60327        0.14843
B         -4.57675       -0.80721       -0.30895
B         -0.34323        1.80625        0.90354
B         -1.74630        2.49069        0.31219
B         -3.18517        1.65461        0.25727
B         -4.62145        0.81031       -0.25491
B         -4.49915        2.37929       -0.44935
B         -3.21776        3.29401       -0.25457
B         -1.81476        4.18762       -0.22303
B         -0.39295        3.42672        0.42800
B         -0.41410        4.90294       -0.35133
B          2.46599        3.53527        0.09827
B          1.03030        4.32529       -0.10540
B          2.53232        1.88672        0.42301
B          3.89854        2.76830       -0.09060
B          4.01852        1.06499        0.30858
B          1.08149        2.66494        0.62458
B          1.22144       -2.39891        0.45542
B         -3.21713       -0.08970        0.59658
B          1.10620        0.93664        0.71016
B         -4.36843       -2.35060       -0.60736
B          5.33555       -1.44113       -0.74741
B          5.28974        0.18067       -0.45916
B          5.23995        2.01795       -0.63185
B          6.42574        1.11651       -1.27495
B          6.46862       -0.43476       -1.32677
B         -1.76702        0.86682        0.81919
B          1.77183       -3.02350        2.36790
B         -0.24796       -1.64064        0.78839
B         -5.89794       -1.67521       -0.78555
B         -6.14081        0.03314       -0.79177
B         -5.99093        1.76719       -0.74121
B          0.17708       -2.12468        0.23336
