45
isomer_0610.log	Energy: -113500.4741157
B         -2.54200        1.78876        0.46304
B         -2.49747        3.34580       -0.06427
B         -1.04828        4.17179       -0.22715
B          0.33248        3.41405        0.39911
B         -1.06878        0.86058        0.85364
B          1.68853        0.84596        0.63278
B          1.77656        4.16535       -0.26124
B         -4.04667        0.95462        0.37680
B          1.79876        2.56506        0.42227
B         -3.87833        2.58432       -0.21507
B          0.34667        4.74803       -0.47259
B          3.15070        3.35780       -0.13910
B          3.22335        1.73226        0.33106
B          4.64176        0.89620        0.23891
B          0.34189       -1.70567        1.03968
B          1.52754       -2.27275       -0.19077
B          3.06531       -1.62393        0.05891
B          4.54015       -0.72975       -0.18867
B          4.39742       -2.41679       -0.66285
B          3.03551       -3.17913       -0.34975
B          1.63441       -4.02633       -0.15189
B          0.37525       -3.39540        0.98793
B          0.26237       -4.66845       -0.14800
B         -2.55855       -3.21247        0.01343
B         -1.13843       -4.00649       -0.12168
B         -2.58795       -1.63050        0.57832
B         -3.90379       -2.39751       -0.05621
B         -3.96907       -0.74656        0.27885
B         -1.08566       -2.44994        0.55810
B         -1.08244        2.56293        0.45738
B          3.20524        0.03046        0.60019
B         -2.54882        0.10511        0.88855
B          4.52745        2.51193       -0.44027
B         -5.23419        1.78820       -0.54830
B         -4.95494        0.11482       -0.74421
B         -5.18215       -1.57165       -0.71776
B         -6.25559       -0.68125       -1.31109
B         -6.34139        0.84755       -1.13701
B          1.67202       -0.74572        0.70013
B         -1.12467       -0.76593        1.02156
B          0.33953        1.74174        0.82373
B          5.55857        1.52023       -0.94382
B          5.85165       -0.00074       -0.94009
B          5.63786       -1.52240       -0.99861
B          0.11820       -2.90421       -0.69400
