45
isomer_0612.log	Energy: -112733.1333809
B          2.43416        1.71194       -0.55192
B          2.39289        3.35298       -0.10728
B          0.96072        4.15169        0.12922
B         -0.46388        3.36137       -0.38354
B          0.97457        0.90628       -0.89682
B         -1.82482        0.81617       -0.90737
B         -1.85213        4.07971        0.34198
B          3.87026        0.92391       -0.46215
B         -1.86310        2.46753       -0.29293
B          3.68561        2.54921       -0.02544
B         -0.41681        4.68930        0.44621
B         -3.22233        3.19836        0.35120
B         -3.24680        1.61330       -0.22792
B         -4.62641        0.71059        0.23441
B         -0.36339       -1.61925       -1.01905
B         -1.66095       -2.47003       -0.34677
B         -3.11398       -1.73059       -0.29236
B         -4.53998       -0.96609        0.19480
B         -4.40684       -2.60076        0.50586
B         -2.95526       -3.31339        0.28088
B         -1.52712       -4.09640        0.27594
B         -0.20062       -3.27479       -0.42240
B         -0.09123       -4.60828        0.36415
B          2.64107       -3.19399       -0.15794
B          1.28849       -3.97474        0.10197
B          2.75185       -1.62733       -0.53174
B          4.09879       -2.38506        0.00223
B          4.02380       -0.76924       -0.48543
B          1.20136       -2.40523       -0.65015
B          0.98556        2.57778       -0.66268
B         -3.26072       -0.01129       -0.64936
B          0.87768       -0.57258       -0.95883
B         -4.64010        2.36209        0.58336
B          5.05617        1.79256        0.48783
B          5.16328        0.16487        0.23011
B          5.32671       -1.53416        0.43851
B          6.35763       -0.57612        1.03260
B          6.23911        0.96073        1.07685
B         -1.75963       -0.85102       -0.93715
B          1.96713       -0.47343        2.14279
B         -0.44671        1.74690       -0.97351
B         -5.87781        1.41188        0.76362
B         -5.93282       -0.19172        0.74951
B         -5.71203       -1.72781        0.74649
B          1.70862       -0.57586        0.46222
