45
isomer_0614.log	Energy: -113461.3723064
B         -2.52403       -1.58532       -0.60381
B         -2.37993       -3.23208        0.09872
B         -1.12731       -4.18321       -0.18868
B          0.34463       -3.52834       -1.17083
B         -1.23320       -0.78810       -1.12849
B          1.67119       -0.75619       -0.91794
B          1.56810       -4.03820        0.29799
B         -3.83192       -0.79299       -0.09812
B          1.56872       -2.46373       -0.34979
B         -3.67624       -2.33853        0.37330
B          0.27182       -4.78099       -0.01195
B          2.92019       -3.11384        0.43977
B          3.04345       -1.60860       -0.16003
B          4.39995       -0.66804        0.33659
B          0.24298        1.82801       -1.10726
B          1.63510        2.59391       -0.50946
B          3.04637        1.81463       -0.24390
B          4.46207        0.96709        0.16728
B          4.26939        2.62351        0.69261
B          2.92323        3.40939        0.21934
B          1.54190        4.21932        0.19283
B          0.17413        3.41531       -0.57927
B          0.12357        4.75497        0.29199
B         -2.62218        3.37002       -0.08064
B         -1.27873        4.14647        0.01912
B         -2.63111        1.64054       -0.66815
B         -3.87639        2.53451        0.18014
B         -3.97153        0.92933       -0.24829
B         -1.28678        2.54024       -0.72475
B         -1.12378       -2.51361       -0.70455
B          3.18528        0.10514       -0.53436
B         -1.26817        0.84852       -1.08927
B          4.23164       -2.29772        0.88056
B         -4.98935       -1.58444        0.98732
B         -5.03388        0.05543        0.61053
B         -5.15913        1.71663        0.77627
B         -6.09487        0.82058        1.59821
B         -5.99227       -0.69314        1.70701
B          1.66345        0.91185       -0.87453
B          0.09249       -3.01320        0.50318
B          0.29203       -1.79742       -1.19392
B          5.34493       -1.37412        1.40173
B          5.52313        0.16136        1.34863
B          5.32418        1.72736        1.28300
B          0.23688        0.01770       -1.21812
