45
isomer_0617.log	Energy: -113078.6138037
B          2.27488        1.93825       -0.00569
B          2.18086        3.68340        0.13759
B          0.74397        4.37879        0.06692
B         -0.54499        3.49005       -0.68632
B          0.91679        1.02390       -0.35347
B         -1.63589        0.75919       -0.82378
B         -2.03866        4.17824       -0.20692
B          3.75268        1.40703       -0.13459
B         -1.91090        2.49422       -0.79121
B          3.57765        3.00221        0.40302
B         -0.70794        4.88668        0.05549
B         -3.32787        3.21523       -0.22851
B         -3.24252        1.60515       -0.43685
B         -4.52292        0.67158        0.11682
B         -0.16059       -1.93407       -0.98328
B         -1.50715       -2.53454       -0.27072
B         -2.90302       -1.75835        0.01674
B         -4.36721       -0.94417        0.31827
B         -4.16232       -2.49099        0.98217
B         -2.79128       -3.26132        0.58852
B         -1.44929       -4.12786        0.63734
B         -0.12079       -3.51808       -0.19649
B         -0.11444       -4.82573        0.68822
B          3.05329       -3.04498       -0.40481
B          1.24407       -4.51391       -0.03716
B          2.55257       -1.29856       -0.78892
B          3.95703       -1.81159       -0.02811
B          3.77302       -0.23409       -0.27668
B          1.43003       -2.89366       -0.96042
B          0.91600        2.69445       -0.37924
B         -3.05935       -0.09796       -0.42565
B          0.68272       -0.49515       -0.63967
B         -4.61367        2.37618        0.31122
B          4.87699        2.29360        0.94117
B          4.83162        0.58442        0.77384
B          5.06656       -1.06628        0.75506
B          6.09499       -0.11771        1.46805
B          6.04342        1.38481        1.48482
B         -1.42689       -0.87186       -0.67306
B          2.46538       -4.28586       -0.80078
B         -0.41718        1.77981       -0.97401
B         -5.65624        1.44110        0.93058
B         -5.68931       -0.09648        1.15876
B         -5.34769       -1.60956        1.36932
B          1.28363       -1.45549       -1.69758
