45
isomer_0618.log	Energy: -112049.5135350
B         -2.55985        1.78440        0.41345
B         -2.52773        3.42854        0.06220
B         -1.10886        4.24400       -0.15833
B          0.33369        3.38299        0.38515
B         -1.11406        0.86802        0.71152
B          1.76027        0.85794        0.81312
B          1.73809        4.16188       -0.28218
B         -4.02943        0.93112        0.31658
B          1.70537        2.47272        0.28030
B         -3.94498        2.62989       -0.11013
B          0.32291        4.84665       -0.41774
B          3.15878        3.29637       -0.30360
B          3.16071        1.66508        0.23447
B          4.61240        0.84181       -0.26840
B          0.29215       -1.67983        0.82691
B          1.66899       -2.38214        0.19619
B          3.13628       -1.59529        0.17799
B          4.60028       -0.77694       -0.29644
B          4.42242       -2.32880       -0.56953
B          3.11006       -3.20676       -0.41625
B          1.67655       -4.05112       -0.42445
B          0.28380       -3.27485        0.26981
B          0.25131       -4.70950       -0.58329
B         -2.57789       -3.26632       -0.05377
B         -1.17134       -4.09481       -0.30278
B         -2.58547       -1.63503        0.35422
B         -3.98297       -2.44104       -0.19797
B         -4.04208       -0.75699        0.28734
B         -1.16250       -2.47283        0.51046
B         -1.12453        2.59488        0.59825
B          3.23033        0.12739        0.60499
B         -1.12619       -0.75128        0.68346
B          4.45789        2.40469       -0.48753
B         -5.27236        1.84404       -0.63534
B         -5.28303        0.20910       -0.42969
B         -5.29830       -1.61768       -0.69530
B         -6.45301       -0.64379       -1.28732
B         -6.44138        0.90865       -1.26042
B          1.74793       -0.78779        0.78461
B         -1.25046       -1.99838        2.30176
B          0.31800        1.76968        0.88667
B          5.96230        1.68603       -0.70566
B          6.14489       -0.02727       -0.79926
B          5.93419       -1.75534       -0.83591
B         -0.97316       -0.70209       -0.17818
