45
isomer_0619.log	Energy: -113675.8839303
B          2.56135       -1.73169        0.52867
B          2.51028       -3.30441       -0.03752
B          1.15225       -4.14882       -0.11167
B         -0.27184       -3.40178        0.53577
B          1.16900       -0.85057        1.06869
B         -1.72025       -0.84309        0.79502
B         -1.64599       -4.16799       -0.26011
B          3.98334       -0.84753        0.22472
B         -1.72772       -2.55034        0.43337
B          3.86758       -2.48675       -0.27612
B         -0.22452       -4.74733       -0.35533
B         -3.01192       -3.33762       -0.27810
B         -3.13123       -1.73126        0.22359
B         -4.54664       -0.89016       -0.14894
B         -0.36664        1.82620        1.11636
B         -1.79927        2.53329        0.48680
B         -3.17163        1.68199        0.25878
B         -4.53359        0.80186       -0.23232
B         -4.40443        2.44630       -0.74987
B         -3.08847        3.28204       -0.26715
B         -1.74388        4.14453       -0.24817
B         -0.34767        3.38564        0.51495
B         -0.33709        4.74549       -0.35375
B          2.43068        3.33286       -0.04111
B          1.05145        4.15666       -0.12404
B          2.51107        1.75856        0.48933
B          3.81224        2.53485       -0.29250
B          3.95792        0.90780        0.21698
B          1.12186        2.58940        0.76565
B          1.18343       -2.57815        0.78819
B         -3.29393       -0.01486        0.60922
B          1.13100        0.84807        1.04274
B         -4.33027       -2.49704       -0.76950
B          5.10353       -1.65519       -0.84528
B          5.19604        0.04106       -0.52224
B          5.06283        1.73534       -0.86361
B          6.08557        0.80986       -1.61226
B          6.10428       -0.71101       -1.60536
B         -1.78276        0.83075        0.90675
B          2.61004        0.01504        0.74671
B         -0.31459       -1.83106        1.08882
B         -5.37826       -1.56794       -1.33666
B         -5.62038       -0.03085       -1.30377
B         -5.46980        1.52050       -1.30272
B         -0.34300       -0.00264        1.09701
