45
isomer_0062.log	Energy: -113458.7562426
B          2.54924        1.66119       -0.63428
B          2.53885        3.38245       -0.05574
B          1.19048        4.14690        0.01900
B         -0.27321        3.43695       -0.65432
B          1.20253        0.93683       -1.06916
B         -1.74863        0.92466       -0.98643
B         -1.64621        4.15907        0.19913
B          3.90564        0.91245       -0.15240
B         -1.70884        2.56988       -0.47602
B          3.79891        2.51412        0.20110
B         -0.22241        4.70789        0.31472
B         -3.01431        3.32297        0.26881
B         -3.08710        1.74706       -0.22389
B         -4.35913        0.78891        0.39903
B         -0.28938       -1.73473       -1.46044
B         -1.40589       -2.41337       -0.04659
B         -3.00022       -1.71917       -0.10969
B         -4.46131       -0.86695        0.11076
B         -4.20672       -2.50149        0.76568
B         -2.87255       -3.28586        0.30251
B         -1.55637       -4.14094        0.00561
B         -0.23332       -3.33166       -0.94415
B         -0.18208       -4.71764       -0.08067
B          2.52217       -3.31459        0.04852
B          1.22493       -4.12670       -0.19081
B          2.56648       -1.60913       -0.43675
B          3.80301       -2.45357        0.31366
B          3.89171       -0.85391       -0.10074
B          1.08486       -2.40925       -0.26063
B          1.20191        2.57725       -0.74752
B         -3.15070        0.00048       -0.50087
B          1.21626       -0.74049       -0.83316
B         -4.33316        2.46589        0.76574
B          5.09300        1.68959        0.77193
B          5.15145        0.03523        0.45044
B          5.11675       -1.60990        0.87131
B          6.13100       -0.70018        1.55703
B          6.12646        0.79646        1.52145
B         -1.58197       -0.75388       -0.51953
B         -0.10016       -1.25264        0.23195
B         -0.32552        1.81906       -1.21153
B         -5.42635        1.53788        1.28067
B         -5.57126       -0.03919        1.27444
B         -5.31099       -1.56169        1.26735
B         -0.24787        0.00378       -1.24556
