45
isomer_0620.log	Energy: -111258.3172220
B         -2.59993       -1.59931       -0.51555
B         -2.61415       -3.24201       -0.15647
B         -1.21930       -4.09286        0.08275
B          0.25069       -3.27215       -0.44940
B         -1.12782       -0.72213       -0.80252
B          1.74670       -0.78700       -0.87383
B          1.62737       -4.08392        0.23625
B         -4.04781       -0.70780       -0.43809
B          1.64436       -2.39721       -0.33424
B         -4.01192       -2.40610       -0.00275
B          0.19357       -4.73113        0.36001
B          3.06975       -3.25539        0.26871
B          3.11961       -1.62732       -0.27676
B          4.58686       -0.83950        0.23764
B          0.34515        1.78785       -0.91471
B          1.73310        2.45731       -0.27272
B          3.17921        1.63282       -0.23544
B          4.61645        0.77914        0.25816
B          4.47608        2.33639        0.52226
B          3.18862        3.24728        0.35113
B          1.77749        4.12852        0.34034
B          0.37239        3.38523       -0.36502
B          0.36824        4.82435        0.48112
B         -2.49178        3.45238       -0.07162
B         -1.06688        4.24537        0.18843
B         -2.53743        1.81989       -0.47221
B         -3.91923        2.66448        0.06151
B         -4.01696        0.98020       -0.41669
B         -1.09165        2.61978       -0.61726
B         -1.18428       -2.44757       -0.68148
B          3.23297       -0.09377       -0.65355
B         -1.09823        0.89706       -0.78200
B          4.38956       -2.39678        0.46227
B         -5.32387       -1.58360        0.50482
B         -5.28997        0.05005        0.29161
B         -5.26060        1.87788        0.54870
B         -6.44630        0.93710        1.13294
B         -6.47468       -0.61523        1.11326
B          1.77678        0.85862       -0.85298
B         -1.55116       -1.95113        1.81068
B          0.28210       -1.66142       -0.95843
B          5.90976       -1.71627        0.69298
B          6.13576       -0.00785        0.78066
B          5.96960        1.72526        0.80719
B         -0.61821       -0.46950       -0.38971
