45
isomer_0621.log	Energy: -112157.3071862
B          2.60512        1.74046       -0.46614
B          2.59175        3.37563       -0.07415
B          1.18267        4.19876        0.17831
B         -0.27250        3.36516       -0.37415
B          1.14816        0.84546       -0.77461
B         -1.72686        0.86509       -0.85235
B         -1.66383        4.14054        0.32394
B          4.06713        0.87118       -0.40267
B         -1.65202        2.46559       -0.28031
B          4.00257        2.55958        0.06653
B         -0.24105        4.80832        0.46451
B         -3.09261        3.28824        0.33589
B         -3.11467        1.67087       -0.24225
B         -4.57012        0.84917        0.25229
B         -0.28350       -1.68533       -0.94108
B         -1.66188       -2.38999       -0.31638
B         -3.12130       -1.58998       -0.26647
B         -4.57341       -0.76982        0.24026
B         -4.40834       -2.32958        0.47346
B         -3.10582       -3.21585        0.28757
B         -1.68052       -4.07367        0.26292
B         -0.28603       -3.29367       -0.42361
B         -0.26047       -4.74924        0.39352
B          2.57815       -3.32022       -0.12389
B          1.16573       -4.14129        0.11636
B          2.59817       -1.67948       -0.49154
B          3.99227       -2.51210        0.02886
B          4.06370       -0.81719       -0.41521
B          1.16594       -2.49966       -0.65650
B          1.17624        2.56880       -0.61885
B         -3.20216        0.14355       -0.65002
B          1.14487       -0.77409       -0.78664
B         -4.39873        2.40461        0.50863
B          5.32653        1.74845        0.56105
B          5.31972        0.11907        0.31502
B          5.31950       -1.71379        0.53533
B          6.48835       -0.76583        1.14151
B          6.49150        0.78685        1.15304
B         -1.73020       -0.78088       -0.86458
B          0.75485       -1.00695        1.84668
B         -0.27649        1.76469       -0.91545
B         -5.90819        1.69504        0.72155
B         -6.10656       -0.01825        0.77435
B         -5.91228       -1.74861        0.76657
B          0.06661       -0.39965       -0.81130
