45
isomer_0622.log	Energy: -113407.1399555
B          2.51551       -1.69988        0.31643
B          2.44662       -3.32899       -0.19605
B          1.02746       -4.12260       -0.28287
B         -0.33997       -3.33968        0.36404
B          1.16506       -0.79994        0.71734
B         -1.68659       -0.77705        0.95052
B         -1.78738       -4.08390       -0.24011
B          3.91659       -0.93778        0.06929
B         -1.80316       -2.48303        0.48068
B          3.82502       -2.53341       -0.31625
B         -0.38767       -4.71023       -0.44553
B         -3.14116       -3.21963       -0.14917
B         -3.17041       -1.60853        0.39337
B         -4.53702       -0.73425       -0.07096
B         -0.22872        1.77151        1.03238
B         -1.60324        2.56992        0.30941
B         -3.03441        1.77399        0.13373
B         -4.49417        0.96101       -0.04548
B         -4.26358        2.53513       -0.78551
B         -2.89172        3.36594       -0.38594
B         -1.48093        4.12273       -0.41493
B         -0.14396        3.38376        0.48860
B         -0.03670        4.65473       -0.50694
B          2.66026        3.22292       -0.01852
B          1.31602        4.07166       -0.16131
B          2.64185        1.60175        0.60625
B          3.96121        2.35626       -0.15630
B          3.98893        0.77010        0.20981
B          1.30301        2.52589        0.68881
B          1.15261       -2.56908        0.52797
B         -3.21768        0.07139        0.64161
B          1.20285        0.80381        0.95285
B         -4.49550       -2.39990       -0.53229
B          5.20989       -1.73753       -0.72828
B          5.31118       -0.12671       -0.17729
B          5.32567        1.53161       -0.55701
B          6.39025        0.64335       -1.18133
B          6.32442       -0.85131       -1.27013
B         -1.58457        0.84074        0.49326
B         -0.20961       -0.05698       -0.02199
B         -0.30484       -1.72231        0.94519
B         -5.57129       -1.47060       -1.04227
B         -5.66696        0.08288       -1.10150
B         -5.36625        1.60433       -1.22888
B         -0.23693        0.04795        1.69530
