45
isomer_0624.log	Energy: -112088.2272868
B          2.55069        1.72030       -0.54045
B          2.53989        3.35592       -0.15028
B          1.13271        4.17830        0.11493
B         -0.32714        3.34296       -0.42236
B          1.09148        0.82384       -0.83367
B         -1.78418        0.84123       -0.88344
B         -1.71219        4.11812        0.28833
B          4.01391        0.85219       -0.49020
B         -1.70499        2.44246       -0.31404
B          3.95263        2.54110       -0.02238
B         -0.28862        4.78713        0.41425
B         -3.14013        3.26477        0.31519
B         -3.16660        1.64669       -0.26080
B         -4.61654        0.82449        0.24885
B         -0.33981       -1.70821       -0.98321
B         -1.71151       -2.41317       -0.34429
B         -3.17098       -1.61419       -0.28112
B         -4.61871       -0.79452        0.23876
B         -4.45020       -2.35388        0.47218
B         -3.14887       -3.23939        0.27466
B         -1.72323       -4.09617        0.23714
B         -0.33608       -3.31594       -0.46385
B         -0.30146       -4.77052        0.35470
B          2.53090       -3.33999       -0.19200
B          1.12151       -4.16183        0.06296
B          2.54609       -1.69967       -0.56176
B          3.94582       -2.53063       -0.05398
B          4.01164       -0.83619       -0.50072
B          1.11295       -2.52111       -0.71180
B          1.11976        2.54739       -0.68021
B         -3.25690        0.11883       -0.66590
B          1.08930       -0.79572       -0.84376
B         -4.44384        2.38036        0.50168
B          5.28196        1.73154        0.46018
B          5.27400        0.10187        0.21615
B          5.27731       -1.73072        0.43861
B          6.45129       -0.78117        1.03226
B          6.45337        0.77152        1.04194
B         -1.78639       -0.80476       -0.89370
B          2.15469       -0.44649        2.72672
B         -0.33517        1.74184       -0.96171
B         -5.95062        1.66991        0.73012
B         -6.14716       -0.04346        0.78687
B         -5.95165       -1.77369        0.77923
B          0.76108       -0.03132        0.31991
