45
isomer_0627.log	Energy: -112390.8463531
B          2.49522        1.88069       -0.45218
B          2.40589        3.51532       -0.05484
B          0.98849        4.28415        0.17611
B         -0.41957        3.42717       -0.38251
B          1.08961        0.94762       -0.78273
B         -1.80715        0.88159       -0.86116
B         -1.82275        4.15422        0.30873
B          3.98685        1.08610       -0.36215
B         -1.76585        2.49223       -0.29221
B          3.81525        2.75115        0.09843
B         -0.43729        4.83786        0.44896
B         -3.21053        3.27721        0.33511
B         -3.20084        1.66510       -0.23178
B         -4.63178        0.80423        0.28640
B         -0.24566       -1.48455       -1.17726
B         -1.67507       -2.39651       -0.26624
B         -3.13496       -1.62023       -0.22478
B         -4.58147       -0.81728        0.29116
B         -4.39591       -2.37918        0.55677
B         -3.05270       -3.23642        0.35618
B         -1.57619       -4.10697        0.33816
B         -0.20827       -3.30476       -0.38212
B         -0.10755       -4.72088        0.45440
B          2.90336       -3.36689       -0.13941
B          1.30530       -4.11435        0.19106
B          2.68665       -1.48595       -0.47653
B          4.13472       -2.28032        0.08750
B          4.09324       -0.58924       -0.36474
B          1.26656       -2.42749       -0.64979
B          1.05905        2.66831       -0.61695
B         -3.25893        0.11664       -0.62950
B          1.15930       -0.58211       -0.81389
B         -4.51080        2.38241        0.53895
B          5.16366        2.01794        0.61827
B          5.25855        0.38538        0.38339
B          5.35902       -1.41353        0.60220
B          6.43335       -0.40978        1.22084
B          6.36089        1.11116        1.23819
B         -1.77692       -0.76429       -0.88360
B          2.32877       -2.77021        0.37755
B         -0.36995        1.82289       -0.92865
B         -5.94876        1.58586        0.76282
B         -6.08443       -0.07400        0.83260
B         -5.85311       -1.75717        0.84483
B         -0.21729       -1.99312       -0.37560
