45
isomer_0628.log	Energy: -113303.3455658
B         -2.87423       -1.20639       -1.32675
B         -3.17859       -2.96256       -0.79461
B         -1.92018       -3.69995       -0.22258
B         -0.40448       -3.04214       -0.56388
B         -1.35585       -0.34503       -1.24849
B          1.52162       -0.86121       -0.84701
B          0.73929       -4.02135        0.43973
B         -3.74392       -0.29698       -0.31721
B          1.16357       -2.48400       -0.29044
B         -4.27224       -2.00467       -0.31155
B         -0.67688       -4.39978        0.34499
B          2.22873       -3.42054        0.56399
B          2.69638       -1.98381       -0.09274
B          4.25267       -1.41416        0.23207
B          0.63249        1.77356       -1.15221
B          2.15025        2.29537       -0.61112
B          3.44587        1.31072       -0.38802
B          4.63752        0.17436        0.04590
B          4.77948        1.83778        0.51922
B          3.60700        2.86327        0.04033
B          2.37231        3.91372        0.10368
B          0.89361        3.41256       -0.59536
B          1.09024        4.67956        0.33828
B         -1.84385        3.74435        0.09624
B         -0.41253        4.29850        0.11713
B         -2.17276        2.07924       -0.64952
B         -3.14671        3.00123        0.42460
B         -3.50867        1.46215       -0.09863
B         -0.69090        2.77179       -0.75370
B         -1.61463       -2.27114       -1.42613
B          3.18622       -0.41670       -0.61504
B         -0.92387        1.18476       -1.25199
B          3.72825       -2.88752        0.98197
B         -4.68658       -1.07513        0.91182
B         -4.63763        0.63756        0.72023
B         -4.35453        2.21954        1.21520
B         -5.25125        1.32943        2.09797
B         -5.35319       -0.14148        1.98621
B          1.81901        0.67697       -0.91849
B         -2.81522       -1.71268        0.44893
B         -0.01250       -1.44449       -1.05518
B          5.00287       -2.21346        1.41927
B          5.54857       -0.76015        1.26059
B          5.67471        0.76175        1.13091
B         -1.31947       -1.36287        0.09140
