45
isomer_0629.log	Energy: -112170.3443707
B         -2.61681       -1.64121       -0.47083
B         -2.61394       -3.28174       -0.10172
B         -1.21009       -4.11787        0.13680
B          0.24982       -3.28654       -0.40650
B         -1.15430       -0.75190       -0.76931
B          1.72039       -0.78997       -0.85230
B          1.63698       -4.08102        0.27829
B         -4.07276       -0.76299       -0.39271
B          1.63559       -2.39775       -0.30251
B         -4.01894       -2.45818        0.05278
B          0.20991       -4.74102        0.41200
B          3.07154       -3.23869        0.29966
B          3.10368       -1.61358       -0.25590
B          4.56550       -0.80878        0.24753
B          0.29430        1.77119       -0.90294
B          1.67847        2.45768       -0.27086
B          3.13248        1.64717       -0.23464
B          4.57980        0.81017        0.25809
B          4.42575        2.36761        0.51331
B          3.12899        3.26520        0.34206
B          1.70953        4.13295        0.33184
B          0.30864        3.37209       -0.36308
B          0.29433        4.81625        0.47431
B         -2.55480        3.41391       -0.05807
B         -1.13643        4.22192        0.19117
B         -2.58660        1.77863       -0.44854
B         -3.97414        2.61334        0.08584
B         -4.05785        0.92532       -0.38171
B         -1.14909        2.59128       -0.60451
B         -1.19386       -2.47702       -0.63756
B          3.20091       -0.08136       -0.64247
B         -1.13999        0.86760       -0.75875
B          4.38393       -2.36645        0.48245
B         -5.33653       -1.64506        0.56085
B         -5.31902       -0.01249        0.33757
B         -5.30595        1.81707        0.58342
B         -6.48024        0.86870        1.17834
B         -6.49395       -0.68393        1.16822
B          1.73493        0.85596       -0.84157
B         -0.55025       -1.51871        1.46630
B          0.26382       -1.67873       -0.92543
B          5.89855       -1.67018        0.70263
B          6.10867        0.04082        0.77898
B          5.92617        1.77240        0.79567
B         -0.29711       -0.30213       -1.05622
