45
isomer_0063.log	Energy: -113489.8671675
B          2.70387        1.64064       -0.67157
B          2.74425        3.31099       -0.30173
B          1.38916        4.16286       -0.08075
B         -0.07769        3.40271       -0.55807
B          1.29996        0.79752       -1.04069
B         -1.64776        0.94737       -0.91998
B         -1.40175        4.23677        0.24402
B          4.08886        0.80322       -0.34529
B         -1.57001        2.63646       -0.49109
B          4.01730        2.46251        0.06696
B          0.03168        4.78235        0.25409
B         -2.79504        3.42783        0.34724
B         -2.98599        1.88955       -0.18058
B         -4.27244        1.00047        0.47196
B         -0.30713       -1.72444       -0.93669
B         -1.56888       -2.33042        0.07938
B         -3.10465       -1.56787       -0.15274
B         -4.53575       -0.59718        0.04229
B         -4.40329       -2.29168        0.60886
B         -3.10825       -3.14058        0.15750
B         -1.73815       -4.05383       -0.06480
B         -0.41083       -3.40787       -1.11203
B         -0.37775       -4.73911        0.00301
B          2.44444       -3.30566        0.02223
B          1.03244       -4.13764        0.04264
B          2.56665       -1.76659       -0.67663
B          3.74095       -2.44513        0.21356
B          3.84416       -0.81666       -0.21649
B          1.09296       -2.58457       -0.70957
B          1.35938        2.52895       -0.81622
B         -3.17199        0.18462       -0.51231
B          1.28723       -0.78926       -1.05840
B         -4.20273        2.67102        0.81971
B          5.18382        1.64252        0.73484
B          4.66561        0.01463        0.97552
B          4.90559       -1.64460        1.01964
B          5.87114       -0.80092        1.77956
B          6.07714        0.67841        1.52612
B         -1.64766       -0.66824       -0.62808
B         -0.19436       -3.02930        0.61596
B         -0.18792        1.83376       -1.11392
B         -5.36554        1.81513        1.27423
B         -5.61623        0.23995        1.21341
B         -5.46461       -1.29523        1.12709
B         -0.19017        0.02656       -1.05220
