45
isomer_0630.log	Energy: -113441.9535264
B          2.47369       -1.74226        0.39688
B          2.65746       -3.19414       -0.79553
B          1.37948       -4.10313       -0.81138
B          0.07315       -3.24264        0.39347
B          1.28438       -0.63412        1.02589
B         -1.68582       -0.78758        1.00779
B         -1.38512       -3.97928       -0.24384
B          3.68677       -0.64860       -0.00108
B         -1.55548       -2.48751        0.56703
B          3.73526       -2.13646       -0.65174
B         -0.05541       -4.49975       -0.66339
B         -2.83318       -3.27091       -0.16866
B         -3.02681       -1.74188        0.31685
B         -4.41128       -0.90334       -0.21679
B         -0.39748        1.88187        0.97118
B         -1.84575        2.55233        0.45822
B         -3.21127        1.68091        0.15923
B         -4.64347        0.73165        0.04649
B         -4.49642        2.36658       -0.69142
B         -3.19023        3.24956       -0.35302
B         -1.82913        4.13297       -0.42332
B         -0.43782        3.42738        0.33804
B         -0.44919        4.75261       -0.56138
B          2.37777        3.44927       -0.10685
B          0.98455        4.21609       -0.27688
B          2.45436        1.82107        0.47610
B          3.80059        2.68803       -0.15248
B          3.73362        1.01508       -0.00201
B          1.09140        2.68552        0.57533
B          1.81698       -3.42250        0.59260
B         -3.25404       -0.02506        0.65101
B          1.14880        0.95837        1.03913
B         -4.26881       -2.56078       -0.59682
B          5.16144       -1.31800       -0.69022
B          5.17893        0.23424       -0.08421
B          5.12916        1.93222       -0.50942
B          6.24128        1.00735       -1.07309
B          6.36482       -0.47456       -1.01570
B         -1.77128        0.86209        0.71733
B          1.16752       -2.28617        1.42139
B         -0.27931       -1.65426        1.30440
B         -5.44942       -1.75128       -1.08330
B         -5.69699       -0.20780       -1.10513
B         -5.51905        1.33278       -1.14655
B         -0.24865        0.09405        0.96586
