45
isomer_0632.log	Energy: -113522.7046363
B         -2.37975       -1.57674       -0.56427
B         -1.98107       -3.15243        0.22396
B         -1.16499       -4.20921       -0.65512
B          0.30386       -3.37592       -1.42589
B         -1.26467       -0.74162       -1.33409
B          1.62822       -0.74176       -0.89870
B          1.46195       -4.06819       -0.03527
B         -3.61248       -0.83069        0.10547
B          1.29340       -2.33242       -0.05682
B         -3.27753       -2.32585        0.67087
B          0.24729       -4.80317       -0.49026
B          2.72305       -3.15586        0.45545
B          2.85344       -1.62685       -0.01175
B          4.14804       -0.68034        0.63720
B          0.23023        1.84248       -1.21358
B          1.61638        2.61411       -0.59462
B          2.98393        1.81046       -0.17217
B          4.38235        0.91209        0.21050
B          4.15273        2.60359        0.76129
B          2.89509        3.43636        0.18791
B          1.52072        4.25405        0.07107
B          0.16574        3.44753       -0.70631
B          0.10717        4.81918        0.09939
B         -2.61836        3.38895       -0.21537
B         -1.29655        4.19189       -0.17993
B         -2.62005        1.62595       -0.79779
B         -3.80047        2.49992        0.13820
B         -3.86846        0.87820       -0.13564
B         -1.30604        2.57380       -0.93803
B         -1.19503       -2.51552       -1.23664
B          3.09786        0.06547       -0.46539
B         -1.28874        0.90777       -1.36593
B          3.98059       -2.34485        1.09062
B         -4.51685       -1.58485        1.38338
B         -4.89225       -0.03315        0.77013
B         -4.93482        1.63412        0.96210
B         -5.68874        0.76691        1.97908
B         -5.46758       -0.68799        2.18140
B          1.58689        0.94076       -0.77652
B         -0.16590       -3.09793        0.30027
B          0.32010       -1.70307       -1.37588
B          5.07147       -1.44009        1.66878
B          5.30121        0.10437        1.59095
B          5.11069        1.63535        1.44323
B          0.15793        0.07519       -1.28523
