45
isomer_0633.log	Energy: -112905.9754399
B         -2.54376       -1.65184       -0.50175
B         -2.54249       -3.28855       -0.12585
B         -1.14059       -4.13099        0.11499
B          0.32023       -3.31263       -0.42066
B         -1.06024       -0.77568       -0.79091
B          1.80289       -0.81751       -0.86220
B          1.69848       -4.11005        0.26942
B         -3.98887       -0.76261       -0.42000
B          1.71182       -2.43234       -0.31101
B         -3.94245       -2.45412        0.02546
B          0.26731       -4.75244        0.39527
B          3.13071       -3.27770        0.29776
B          3.17905       -1.65217       -0.25658
B          4.63945       -0.84944        0.25097
B          0.39502        1.75458       -0.91627
B          1.77756        2.43604       -0.27844
B          3.22236        1.61861       -0.23644
B          4.65937        0.77378        0.26010
B          4.51771        2.33647        0.52098
B          3.21663        3.23507        0.34053
B          1.80690        4.10638        0.32504
B          0.40895        3.35527       -0.37499
B          0.39464        4.78438        0.45753
B         -2.45414        3.40241       -0.08056
B         -1.03146        4.20498        0.17121
B         -2.49678        1.77333       -0.47182
B         -3.87898        2.60496        0.06076
B         -3.96809        0.92483       -0.40660
B         -1.04761        2.58259       -0.62242
B         -1.11379       -2.49853       -0.65837
B          3.28495       -0.11037       -0.64298
B         -1.03617        0.86083       -0.77920
B          4.45998       -2.41443        0.49108
B         -5.25324       -1.63861        0.53130
B         -5.22726       -0.00230        0.30702
B         -5.20495        1.81621        0.55097
B         -6.37331        0.87521        1.13829
B         -6.40069       -0.66975        1.13282
B          1.82544        0.83245       -0.85131
B         -2.21429       -1.06271        1.72721
B          0.34602       -1.70450       -0.94018
B          5.95247       -1.70223        0.71122
B          6.16123       -0.00679        0.78379
B          5.99188        1.69922        0.80011
B         -2.25189        0.10071       -0.71530
