45
isomer_0634.log	Energy: -113273.8524382
B         -2.53728       -1.63411       -0.56437
B         -2.40178       -3.18931        0.04594
B         -1.09385       -4.01605        0.35138
B          0.31675       -3.52514       -0.48650
B         -1.21142       -0.72336       -1.08239
B          1.74064       -0.73740       -1.00972
B          1.63143       -3.95791        0.57063
B         -3.96653       -0.84049       -0.23156
B          1.73825       -2.51278       -0.57124
B         -3.74192       -2.33760        0.41697
B          0.26872       -4.51533        0.81650
B          2.95399       -3.07646        0.45332
B          3.09743       -1.63276       -0.24234
B          4.39854       -0.67402        0.33908
B          0.25893        1.85641       -1.11276
B          1.62948        2.60142       -0.48436
B          3.04868        1.83663       -0.22521
B          4.38483        0.96773        0.31972
B          4.25969        2.61795        0.76943
B          2.86981        3.36307        0.35401
B          1.47294        4.19448        0.30425
B          0.17708        3.42371       -0.54448
B          0.05030        4.73680        0.36421
B         -2.65133        3.27748       -0.19428
B         -1.32505        4.12049        0.00068
B         -2.69231        1.61476       -0.61555
B         -3.98227        2.40050        0.15644
B         -4.07021        0.80621       -0.32952
B         -1.31993        2.54736       -0.77547
B         -1.16490       -2.56783       -0.82012
B          3.24593        0.10319       -0.55140
B         -1.21336        0.83785       -1.01567
B          4.32931       -2.27716        0.88274
B         -4.96273       -1.65013        1.05049
B         -5.15559       -0.01015        0.64991
B         -5.18034        1.67477        0.82322
B         -6.17176        0.73930        1.63925
B         -6.05332       -0.73805        1.75889
B          1.70647        0.91021       -0.97859
B          0.26129        0.05148       -1.01270
B          0.29733       -1.62898       -1.40187
B          5.38675       -1.36592        1.41573
B          5.57719        0.19275        1.36654
B          5.36616        1.72609        1.33372
B          0.42797       -2.98969       -1.93294
