45
isomer_0638.log	Energy: -112507.3906402
B         -2.62021        1.75895        0.41106
B         -2.60495        3.40130        0.05040
B         -1.19459        4.22952       -0.17701
B          0.25726        3.38600        0.36909
B         -1.16494        0.85868        0.71206
B          1.70950        0.87772        0.80919
B          1.65284        4.17497       -0.30487
B         -4.08139        0.89059        0.32136
B          1.63775        2.48880        0.26726
B         -4.01446        2.58765       -0.11515
B          0.23073        4.84487       -0.44211
B          3.08203        3.32349       -0.32360
B          3.10097        1.69540        0.22375
B          4.56001        0.88372       -0.27671
B          0.26669       -1.67438        0.83975
B          1.64948       -2.36658        0.21088
B          3.10885       -1.56532        0.18588
B          4.56392       -0.73521       -0.29552
B          4.40108       -2.29029       -0.55948
B          3.09774       -3.18034       -0.39913
B          1.67268       -4.03892       -0.40026
B          0.27334       -3.27256        0.29176
B          0.25381       -4.71231       -0.55310
B         -2.58878       -3.29428       -0.02736
B         -1.17445       -4.11018       -0.27386
B         -2.61195       -1.66085        0.37134
B         -4.00221       -2.48382       -0.17404
B         -4.07731       -0.79771        0.30176
B         -1.18049       -2.48358        0.53012
B         -1.19273        2.58468        0.58898
B          3.18643        0.16062        0.60291
B         -1.16102       -0.76079        0.69325
B          4.38964        2.44371       -0.50450
B         -5.33477        1.78568       -0.63378
B         -5.32888        0.15191       -0.41880
B         -5.32641       -1.67641       -0.67399
B         -6.49163       -0.71744       -1.26972
B         -6.49538        0.83518       -1.25169
B          1.71347       -0.76819        0.79007
B         -0.84915       -1.51128        2.20112
B          0.25836        1.77551        0.87981
B          5.90079        1.73878       -0.72091
B          6.10024        0.02688       -0.80502
B          5.90667       -1.70338       -0.83150
B          0.52145       -1.10078       -0.21967
