45
isomer_0639.log	Energy: -113675.8862646
B         -2.50949        1.75972        0.48871
B         -2.42796        3.33460       -0.03963
B         -1.04820        4.15727       -0.12257
B          0.35047        3.38511        0.51523
B         -1.13008        0.84875        1.04269
B          1.78552        0.83043        0.91088
B          1.74726        4.14426       -0.24610
B         -3.95632        0.90996        0.21529
B          1.80162        2.53253        0.48823
B         -3.81008        2.53713       -0.29258
B          0.34086        4.74582       -0.35186
B          3.09119        3.28068       -0.26639
B          3.17321        1.68067        0.26020
B          4.53232        0.79853       -0.23681
B          0.31299       -1.83071        1.08813
B          1.72472       -2.55104        0.43101
B          3.12899       -1.73293        0.22092
B          4.54650       -0.89343       -0.14705
B          4.32644       -2.49896       -0.77150
B          3.00868       -3.33972       -0.27904
B          1.64233       -4.16962       -0.25801
B          0.26947       -3.40318        0.54006
B          0.22055       -4.74833       -0.35207
B         -2.51279       -3.30382       -0.03705
B         -1.15583       -4.14929       -0.10860
B         -2.56305       -1.73083        0.52988
B         -3.86916       -2.48536       -0.27642
B         -3.98386       -0.84573        0.22413
B         -1.18545       -2.57759        0.78910
B         -1.11957        2.58982        0.76592
B          3.29363       -0.01598        0.60880
B         -1.17000       -0.85065        1.06907
B          4.40647        2.44463       -0.74957
B         -5.06074        1.73828       -0.86498
B         -5.19553        0.04408       -0.52314
B         -5.10394       -1.65235       -0.84602
B         -6.10371       -0.70734       -1.60684
B         -6.08369        0.81345       -1.61389
B          1.71815       -0.84326        0.78946
B         -2.60959        0.01569        0.74541
B          0.36872        1.82542        1.11735
B          5.47247        1.51887       -1.30217
B          5.61984       -0.03301       -1.30522
B          5.37393       -1.56951       -1.33879
B          0.34272       -0.00303        1.09583
