45
isomer_0064.log	Energy: -113274.2821472
B          2.92872        1.27128       -0.90797
B          3.01671        2.96846       -0.64209
B          1.78847        3.96367       -0.56242
B          0.24817        3.16230       -0.69749
B          1.39928        0.50089       -1.23034
B         -1.61648        0.79188       -0.71556
B         -0.90346        4.20306        0.03903
B          4.21381        0.40176       -0.25141
B         -1.16721        2.45090       -0.25336
B          4.21723        2.04462       -0.14753
B          0.50845        4.69853       -0.25973
B         -2.32884        3.51612        0.39713
B         -2.74466        1.98994       -0.02143
B         -4.30714        1.40603        0.38989
B         -1.39143       -1.98443       -1.96367
B         -2.50661       -2.46202       -0.81226
B         -3.50356       -1.34076       -0.15958
B         -4.42517       -0.22681        0.69130
B         -4.71924       -1.87880        1.00760
B         -3.61430       -2.89622        0.34455
B         -2.30916       -3.83172        0.22586
B         -1.16488       -3.39910       -1.13653
B         -0.86167       -4.19778        0.20859
B          2.11143       -3.11270        0.44402
B          0.55497       -3.57663       -0.03571
B          2.63788       -1.53241       -0.31314
B          3.44786       -2.40339        0.97643
B          4.11254       -1.24366        0.02644
B          1.55175       -2.65797       -0.92357
B          1.59498        2.18024       -0.98157
B         -3.27251        0.34347       -0.43682
B          1.20880       -1.02379       -1.14140
B         -3.71928        2.94452        1.00924
B          5.18480        1.29766        0.86692
B          5.31822       -0.37196        0.75936
B          4.85751       -1.88274        1.48711
B          5.93473       -1.02609        2.15111
B          5.94277        0.44259        1.97831
B         -2.03193       -0.74309       -1.14650
B          0.02548       -2.20792       -1.13897
B          0.00778        1.53052       -0.96119
B         -4.88551        2.20966        1.64814
B         -5.43363        0.76053        1.67298
B         -5.58678       -0.80261        1.62915
B         -0.31886       -0.27600       -1.11291
