45
isomer_0640.log	Energy: -113420.2122246
B         -2.68463        1.58597        0.74000
B         -2.71280        3.18727        0.07752
B         -1.36833        4.09404       -0.03212
B          0.11090        3.41569        0.57466
B         -1.22253        0.78049        1.02854
B          1.47611        0.81495        0.14532
B          1.42694        4.17946       -0.40625
B         -3.99753        0.69112        0.30197
B          1.51721        2.58822        0.16357
B         -3.97006        2.27436       -0.09601
B         -0.03199        4.69147       -0.41279
B          2.80565        3.37385       -0.50853
B          2.92161        1.73495       -0.06783
B          4.44097        1.03004       -0.09104
B          0.33745       -1.68798        0.78841
B          1.86367       -2.44060        0.58531
B          3.21063       -1.53652        0.53667
B          4.55393       -0.66612        0.03626
B          4.57769       -2.36063       -0.34903
B          3.22769       -3.17152        0.02073
B          1.90094       -4.06377       -0.13263
B          0.41936       -3.29943        0.27824
B          0.51199       -4.71808       -0.40942
B         -2.36958       -3.34629       -0.30526
B         -0.92371       -4.13110       -0.34629
B         -2.50742       -1.75339        0.29026
B         -3.78981       -2.59008       -0.39139
B         -3.89768       -0.99286        0.02977
B         -1.09811       -2.54969        0.37071
B         -1.32092        2.50754        0.66845
B          3.15280        0.12929        0.59722
B         -1.19148       -0.80198        0.71075
B          4.18883        2.55016       -0.90254
B         -5.35150        1.44643       -0.47094
B         -5.31485       -0.20673       -0.13752
B         -5.16893       -1.80308       -0.78197
B         -6.27624       -0.88983       -1.30379
B         -6.41571        0.58832       -1.11181
B          1.68943       -0.69014        1.09957
B          0.27494        0.10305        1.61676
B          0.21390        1.75849        0.92412
B          5.33193        1.64090       -1.26696
B          5.66542        0.11615       -1.04730
B          5.61494       -1.42358       -0.91065
B          0.17888       -0.15882       -0.10275
