45
isomer_0642.log	Energy: -112277.1064710
B         -2.57348        1.69952        0.42389
B         -2.56071        3.34010        0.05516
B         -1.15162        4.16915       -0.17711
B          0.30170        3.33032        0.37229
B         -1.11679        0.80276        0.72847
B          1.75767        0.82624        0.82387
B          1.69581        4.11791       -0.30632
B         -4.03350        0.82871        0.33928
B          1.68338        2.43455        0.27409
B         -3.96918        2.52369       -0.10559
B          0.27269        4.78515       -0.44604
B          3.12616        3.26832       -0.32169
B          3.14768        1.64296        0.23363
B          4.60756        0.83086       -0.26367
B          0.31842       -1.72766        0.86777
B          1.70181       -2.42103        0.24152
B          3.16005       -1.61789        0.21176
B          4.61370       -0.78813       -0.27453
B          4.45287       -2.34471       -0.53077
B          3.15085       -3.23577       -0.36532
B          1.72698       -4.09631       -0.36142
B          0.32698       -3.32851        0.32763
B          0.30897       -4.77241       -0.51015
B         -2.53529       -3.35575        0.01024
B         -1.11997       -4.17090       -0.23306
B         -2.56050       -1.72042        0.40094
B         -3.94993       -2.54798       -0.13961
B         -4.02710       -0.85965        0.32796
B         -1.12781       -2.54038        0.56294
B         -1.14705        2.52808        0.59694
B          3.23547        0.11018        0.62028
B         -1.11065       -0.81679        0.71761
B          4.43490        2.38948       -0.49901
B         -5.28866        1.71736       -0.61953
B         -5.28039        0.08468       -0.39654
B         -5.27552       -1.74487       -0.64275
B         -6.44241       -0.79044       -1.24252
B         -6.44831        0.76224       -1.23210
B          1.76391       -0.81973        0.81283
B         -1.33502       -0.92576        1.66796
B          0.30532        1.72236        0.89092
B          5.94690        1.68559       -0.71281
B          6.14868       -0.02643       -0.78865
B          5.95749       -1.75706       -0.80652
B         -1.09207        0.80837       -0.53228
