45
isomer_0643.log	Energy: -112128.6889216
B         -2.60568        1.77588        0.43726
B         -2.59125        3.42078        0.08841
B         -1.18151        4.25007       -0.13897
B          0.27227        3.40205        0.39489
B         -1.14953        0.87289        0.72561
B          1.72530        0.89009        0.81074
B          1.66533        4.19532       -0.27924
B         -4.06759        0.90876        0.34747
B          1.65195        2.50507        0.28076
B         -4.00179        2.60890       -0.07705
B          0.24294        4.86675       -0.40563
B          3.09407        3.34344       -0.31015
B          3.11463        1.71143        0.22534
B          4.57121        0.90281       -0.28712
B          0.28155       -1.66159        0.82896
B          1.66138       -2.34978        0.18927
B          3.12097       -1.54894        0.16390
B          4.57435       -0.71594       -0.31763
B          4.40974       -2.26901       -0.59212
B          3.10671       -3.15968       -0.43271
B          1.68129       -4.01767       -0.43402
B          0.28521       -3.25578        0.26942
B          0.26151       -4.68938       -0.58573
B         -2.57824       -3.27407       -0.03777
B         -1.16531       -4.08873       -0.29612
B         -2.59903       -1.64355        0.37282
B         -3.99193       -2.46202       -0.17262
B         -4.06431       -0.77935        0.31565
B         -1.16726       -2.46797        0.51960
B         -1.17711        2.59973        0.61511
B          3.20104        0.17391        0.59305
B         -1.14638       -0.74642        0.69509
B          4.40054        2.46448       -0.50292
B         -5.32461        1.81122       -0.59589
B         -5.31851        0.17594       -0.39274
B         -5.31788       -1.65050       -0.66113
B         -6.48521       -0.68679       -1.24499
B         -6.48823        0.86566       -1.21574
B          1.72849       -0.75564        0.77972
B         -0.86402       -0.95239       -0.16166
B          0.27484        1.78791        0.89397
B          5.91046        1.76053       -0.73078
B          6.10883        0.04920       -0.82810
B          5.91441       -1.68074       -0.86625
B          0.02637       -2.48687        2.02006
