45
isomer_0645.log	Energy: -113458.2560460
B         -2.55445        1.73172        0.65850
B         -2.46751        3.41501       -0.09282
B         -1.08871        4.15997       -0.19767
B          0.33359        3.36865        0.39873
B         -1.22387        0.93899        1.04511
B          1.74189        0.85424        0.86032
B          1.76747        4.13469       -0.21063
B         -3.93511        0.99021        0.21584
B          1.80328        2.54500        0.60279
B         -3.73958        2.56455       -0.27163
B          0.35610        4.72147       -0.41933
B          3.12002        3.28254       -0.15830
B          3.15442        1.67679        0.29317
B          4.54888        0.73529        0.00212
B          0.29114       -1.81384        1.48238
B          1.34278       -2.35050       -0.15270
B          2.97118       -1.80278        0.18494
B          4.32120       -0.87379       -0.36410
B          4.16376       -2.51468       -0.85883
B          2.80067       -3.27408       -0.45592
B          1.46601       -4.09906       -0.23355
B          0.19715       -3.32455        0.78164
B          0.07606       -4.64517       -0.18003
B         -2.62389       -3.24335       -0.00685
B         -1.32258       -4.06095        0.05605
B         -2.64385       -1.53852        0.56761
B         -3.90303       -2.35350       -0.18768
B         -3.98346       -0.77885        0.27674
B         -1.19240       -2.38540        0.38754
B         -1.14525        2.51039        0.42001
B          3.18248       -0.08234        0.59015
B         -1.22225       -0.75421        0.92302
B          4.45223        2.41723       -0.53483
B         -5.05983        1.74245       -0.78790
B         -5.21810        0.13162       -0.33021
B         -5.22768       -1.53156       -0.69852
B         -6.22366       -0.64318       -1.41072
B         -6.11946        0.84080       -1.49645
B          1.67641       -0.92006        0.97179
B          0.25023        0.00481        1.08539
B          0.32578        1.78454        0.96953
B          5.47484        1.45035       -1.08323
B          5.60900       -0.10977       -1.18612
B          5.35836       -1.64074       -1.27764
B          0.10974       -1.26043       -0.17772
