45
isomer_0648.log	Energy: -113420.5677545
B          2.50701       -1.75218        0.27260
B          2.37794       -3.35418       -0.30040
B          0.93281       -4.14060       -0.34262
B         -0.41527       -3.29220        0.24859
B          1.19297       -0.79919        0.69838
B         -1.68286       -0.68737        1.09789
B         -1.89359       -4.07284       -0.13029
B          3.88161       -0.97973       -0.01925
B         -1.85376       -2.43953        0.58119
B          3.79822       -2.59136       -0.39369
B         -0.50467       -4.72593       -0.40531
B         -3.22106       -3.17962        0.02705
B         -3.20058       -1.54268        0.53231
B         -4.54955       -0.67297        0.04364
B         -0.22064        1.76347        0.91946
B         -1.52401        2.59182        0.16371
B         -2.92892        1.73397       -0.07436
B         -4.44573        1.02129       -0.07517
B         -4.19841        2.54012       -0.89872
B         -2.81469        3.37216       -0.51073
B         -1.44087        4.18153       -0.40795
B         -0.11962        3.42443        0.57153
B          0.01823        4.69606       -0.42069
B          2.70649        3.19991        0.07249
B          1.35671        4.10552       -0.03574
B          2.67602        1.59652        0.72156
B          3.96468        2.28627       -0.10466
B          3.97744        0.69641        0.25877
B          1.31211        2.52116        0.66090
B          1.10545       -2.55409        0.37001
B         -3.15012        0.12442        0.60018
B          1.21755        0.78594        1.00835
B         -4.57481       -2.37436       -0.33326
B          5.18133       -1.80634       -0.76524
B          5.31722       -0.20720       -0.10881
B          5.35685        1.44913       -0.45415
B          6.44239        0.58781       -1.05216
B          6.30353       -0.89156       -1.25156
B         -1.48037        0.81881        0.13773
B         -0.27459        0.11030        1.61191
B         -0.33084       -1.68484        0.76827
B         -5.61945       -1.43940       -0.88510
B         -5.67021        0.10092       -1.03019
B         -5.33588        1.62403       -1.25773
B         -0.17607       -0.14381       -0.10874
