45
isomer_0649.log	Energy: -112574.7706378
B          2.60249       -1.66853        0.39746
B          2.59437       -3.30556        0.01318
B          1.18753       -4.13715       -0.22361
B         -0.26728       -3.30852        0.33720
B          1.14353       -0.77965        0.71402
B         -1.73060       -0.81381        0.81604
B         -1.66036       -4.09436       -0.34555
B          4.05937       -0.79200        0.31766
B         -1.65221       -2.41656        0.25081
B          3.99968       -2.48289       -0.14315
B         -0.23534       -4.75541       -0.49499
B         -3.09361       -3.24953       -0.34943
B         -3.11926       -1.62960        0.22137
B         -4.58307       -0.81778       -0.26471
B         -0.29987        1.74444        0.88080
B         -1.68710        2.43903        0.26446
B         -3.14269        1.63125        0.23054
B         -4.59471        0.80122       -0.26016
B         -4.43974        2.36070       -0.50196
B         -3.14034        3.25456       -0.33114
B         -1.71938        4.11986       -0.32246
B         -0.31513        3.35031        0.35592
B         -0.30402        4.80216       -0.46812
B          2.54625        3.39029        0.03200
B          1.12760        4.20290       -0.20016
B          2.57792        1.75141        0.40707
B          3.96324        2.58879       -0.12889
B          4.04723        0.89637        0.32241
B          1.14287        2.56492        0.58027
B          1.17929       -2.50354        0.56602
B         -3.21129       -0.10087        0.62278
B          1.13189        0.83989        0.71858
B         -4.40572       -2.37349       -0.51527
B          5.31520       -1.66723       -0.65254
B          5.30195       -0.03678       -0.41402
B          5.29032        1.79500       -0.64281
B          6.45897        0.85029       -1.25440
B          6.47013       -0.70239       -1.25876
B         -1.74242        0.83217        0.82067
B          1.62382       -0.36997        1.73552
B         -0.27508       -1.70558        0.87110
B         -5.92060       -1.67274       -0.71877
B         -6.12834        0.03922       -0.77784
B         -5.94303        1.77059       -0.77970
B         -0.15246       -0.64144       -0.42746
