45
isomer_0065.log	Energy: -113675.8864629
B          2.56323       -1.73048        0.53033
B          2.51355       -3.30366       -0.03733
B          1.15678       -4.14913       -0.10887
B         -0.26901       -3.40303        0.53943
B          2.60968        0.01593        0.74641
B         -1.71743       -0.84340        0.78726
B         -1.64175       -4.16967       -0.25851
B          3.98419       -0.84537        0.22487
B         -1.72423       -2.55134        0.43094
B          3.86951       -2.48481       -0.27644
B         -0.21973       -4.74798       -0.35287
B         -3.00839       -3.34050       -0.27879
B         -3.12865       -1.73341        0.22068
B         -4.54669       -0.89407       -0.14532
B         -0.36919        1.82501        1.11694
B         -1.80207        2.53259        0.48855
B         -3.17340        1.68039        0.26033
B         -4.53184        0.79781       -0.23813
B         -4.40693        2.44443       -0.74940
B         -3.09201        3.28055       -0.26602
B         -1.74812        4.14422       -0.24616
B         -0.35099        3.38448        0.51410
B         -0.34165        4.74569       -0.35211
B          2.42749        3.33481       -0.03966
B          1.04755        4.15723       -0.12278
B          2.50917        1.75977        0.48866
B          3.80974        2.53722       -0.29212
B          3.95640        0.91034        0.21601
B          1.11921        2.58990        0.76529
B          1.18605       -2.57766        0.78839
B         -3.29338       -0.01599        0.60878
B          1.12995        0.84871        1.04227
B         -4.32644       -2.49965       -0.77030
B          5.10423       -1.65155       -0.84577
B          5.19532        0.04457       -0.52314
B          5.06049        1.73877       -0.86447
B          6.08390        0.81420       -1.61328
B          6.10412       -0.70644       -1.60647
B         -1.78649        0.83040        0.91145
B          1.17006       -0.85103        1.06893
B         -0.31258       -1.83083        1.08804
B         -5.37344       -1.56964       -1.33782
B         -5.62011       -0.03338       -1.30446
B         -5.47340        1.51872       -1.30142
B         -0.34269       -0.00275        1.09397
