45
isomer_0650.log	Energy: -111688.5388849
B          2.60139       -1.68357        0.42399
B          2.58716       -3.32312        0.05078
B          1.17734       -4.15021       -0.18404
B         -0.27531       -3.31152        0.36736
B          1.14549       -0.78627        0.73074
B         -1.72902       -0.80732        0.82549
B         -1.67001       -4.09593       -0.31369
B          4.06225       -0.81390        0.34207
B         -1.65613       -2.41418        0.27132
B          3.99642       -2.50760       -0.10745
B         -0.24750       -4.76413       -0.45494
B         -3.09957       -3.24497       -0.32702
B         -3.11967       -1.62112        0.23274
B         -4.57869       -0.80629       -0.26263
B         -0.28737        1.74510        0.87668
B         -1.66999        2.44149        0.25204
B         -3.12898        1.63979        0.21979
B         -4.58331        0.81274       -0.26906
B         -4.42096        2.36986       -0.52101
B         -3.11814        3.25924       -0.35285
B         -1.69347        4.11843       -0.34632
B         -0.29432        3.34743        0.34091
B         -0.27479        4.79360       -0.49290
B          2.56804        3.37285        0.02419
B          1.15353        4.18999       -0.21717
B          2.59163        1.73643        0.41041
B          3.98194        2.56417       -0.12759
B          4.05743        0.87449        0.33537
B          1.15968        2.55729        0.57436
B          1.17415       -2.51126        0.59449
B         -3.20610       -0.08932        0.62356
B          1.14086        0.83330        0.72431
B         -4.40744       -2.36441       -0.50220
B          5.31677       -1.70111       -0.61891
B          5.30998       -0.06904       -0.39146
B          5.30689        1.76119       -0.63266
B          6.47300        0.80731       -1.23480
B          6.47744       -0.74540       -1.22864
B         -1.73371        0.83869        0.81896
B          1.14643        0.54764        1.38375
B         -0.27752       -1.70498        0.89038
B         -5.91874       -1.65852       -0.71438
B         -6.11889        0.05389       -0.78557
B         -5.92608        1.78438       -0.79867
B          0.00790       -1.27513       -0.42969
