45
isomer_0651.log	Energy: -112665.2278472
B         -2.57146        1.76430        0.41685
B         -2.54598        3.40502        0.04945
B         -1.13047        4.22366       -0.18065
B          0.31593        3.37352        0.36964
B         -1.12187        0.85639        0.72229
B          1.75258        0.85824        0.82080
B          1.71663        4.15116       -0.30685
B         -4.03789        0.90453        0.32999
B          1.69095        2.46749        0.27221
B         -3.96036        2.59933       -0.11346
B          0.29871        4.82917       -0.44756
B          3.14059        3.29088       -0.32135
B          3.14931        1.66497        0.23270
B          4.60360        0.84233       -0.26368
B          0.29417       -1.68483        0.86112
B          1.67300       -2.38807        0.23580
B          3.13725       -1.59586        0.20825
B          4.59761       -0.77665       -0.27582
B          4.42538       -2.33178       -0.53346
B          3.11654       -3.21317       -0.37012
B          1.68626       -4.06302       -0.36844
B          0.29130       -3.28527        0.31972
B          0.26337       -4.72834       -0.51922
B         -2.57075       -3.29080       -0.00076
B         -1.16131       -4.11634       -0.24319
B         -2.58411       -1.65562        0.39121
B         -3.97912       -2.47232       -0.15149
B         -4.04413       -0.78383        0.31733
B         -1.15778       -2.48643        0.55409
B         -1.13904        2.58200        0.59209
B          3.22519        0.13127        0.61822
B         -1.12786       -0.76315        0.71015
B          4.44289        2.40239       -0.49797
B         -5.28531        1.80333       -0.62946
B         -5.28952        0.17046       -0.40776
B         -5.29811       -1.65889       -0.65542
B         -6.45716       -0.69526       -1.25568
B         -6.45142        0.85741       -1.24404
B          1.74649       -0.78773        0.80846
B         -1.30596       -1.28410        2.03514
B          0.30692        1.76517        0.88699
B          5.94980        1.68734       -0.71070
B          6.13881       -0.02608       -0.78768
B          5.93466       -1.75522       -0.80713
B         -0.67834       -0.78760       -0.66058
