45
isomer_0656.log	Energy: -113367.4227998
B          2.53682       -1.53791        0.78113
B          2.27901       -3.20770        0.07249
B          0.86659       -3.90628        0.14744
B         -0.97552       -3.87264        0.30156
B          1.27196       -0.63222        1.19912
B         -1.70751       -0.66817        1.18913
B         -1.59558       -4.30852       -1.09630
B          3.84837       -0.85422        0.17579
B         -1.57431       -2.39606        0.87536
B          3.57002       -2.39470       -0.31373
B         -0.16437       -4.61748       -0.86872
B         -2.48988       -3.14276       -0.49570
B         -2.86675       -1.69304        0.29434
B         -4.13690       -0.73468       -0.41958
B         -0.26569        1.93071        1.11902
B         -1.68010        2.67321        0.57182
B         -3.06359        1.84609        0.27341
B         -4.41178        0.89260       -0.17849
B         -4.22986        2.54574       -0.77752
B         -2.94053        3.40633       -0.30627
B         -1.59041        4.23873       -0.28245
B         -0.22070        3.50636        0.52478
B         -0.17557        4.77622       -0.44133
B          2.56646        3.38930       -0.08538
B          1.24057        4.19534       -0.15818
B          2.62614        1.74339        0.68945
B          3.79679        2.47500       -0.32526
B          3.90065        0.91281        0.14079
B          1.22670        2.60038        0.53308
B          1.20104       -2.40743        1.03470
B         -3.14493        0.12200        0.61266
B          1.26690        1.01052        1.15826
B         -3.86433       -2.31395       -0.96491
B          4.88143       -1.66239       -0.93481
B          5.06148       -0.02093       -0.54589
B          5.02027        1.60518       -0.96685
B          5.91318        0.66331       -1.78197
B          5.86920       -0.82364       -1.75125
B         -1.68272        1.01057        0.98359
B         -0.23388        0.16999        1.44371
B         -0.21423       -1.51269        1.52995
B         -4.98358       -1.50122       -1.53871
B         -5.29048        0.03925       -1.48179
B         -5.19684        1.57555       -1.41009
B         -0.24354       -3.11993        1.47360
