45
isomer_0658.log	Energy: -113672.5795878
B         -2.51425       -1.73934       -0.35948
B         -2.43408       -3.34869        0.01389
B         -1.05165       -4.16861        0.10494
B          0.34559       -3.38328       -0.51534
B         -1.12859       -0.84098       -0.97952
B          1.77931       -0.82288       -0.89275
B          1.74435       -4.15318        0.22263
B         -3.96234       -0.90695       -0.21195
B          1.79748       -2.52897       -0.48763
B         -3.82686       -2.54658        0.30997
B          0.33920       -4.76265        0.31805
B          3.08950       -3.28601        0.25153
B          3.17367       -1.68189       -0.26580
B          4.54131       -0.80878        0.21918
B          0.32095        1.83849       -1.10338
B          1.73875        2.55549       -0.43795
B          3.13971        1.73122       -0.22886
B          4.54744        0.88517        0.16394
B          4.34084        2.49318        0.77228
B          3.02075        3.33607        0.27976
B          1.65367        4.16557        0.26458
B          0.27786        3.40250       -0.53334
B          0.23104        4.74424        0.36217
B         -2.50585        3.30219        0.03520
B         -1.14540        4.14635        0.11603
B         -2.55559        1.73264       -0.52818
B         -3.87350        2.48951        0.25511
B         -3.98224        0.84985       -0.23052
B         -1.17889        2.58467       -0.79414
B         -1.12933       -2.57599       -0.74101
B          3.30217        0.01661       -0.61345
B         -1.16039        0.85443       -1.05743
B          4.41038       -2.45680        0.73031
B         -5.08258       -1.73431        0.86004
B         -5.19359       -0.03637        0.52075
B         -5.11253        1.66018        0.82280
B         -6.12904        0.71855        1.57392
B         -6.12555       -0.80226        1.57432
B          1.73338        0.85202       -0.81286
B         -2.60003       -0.01770       -0.75890
B          0.35715       -1.81948       -1.10102
B          5.46713       -1.52997        1.29684
B          5.60488        0.02054        1.32343
B          5.38510        1.56319        1.34387
B          0.35070        0.00902       -1.08202
