45
isomer_0659.log	Energy: -110832.3283828
B         -2.54192        1.77677        0.35083
B         -2.50668        3.41934       -0.00737
B         -1.08590        4.23399       -0.21835
B          0.35162        3.37557        0.34225
B         -1.09888        0.86189        0.66632
B          1.77438        0.85260        0.79458
B          1.76208        4.15167       -0.31547
B         -4.01048        0.92289        0.24413
B          1.72429        2.46501        0.25413
B         -3.92221        2.61977       -0.18928
B          0.34817        4.83566       -0.46716
B          3.18298        3.28624       -0.31991
B          3.18005        1.65734        0.22536
B          4.63641        0.83204       -0.26041
B          0.30640       -1.68525        0.80599
B          1.68908       -2.39019        0.19116
B          3.15640       -1.60324        0.18307
B          4.62467       -0.78682       -0.28141
B          4.44947       -2.33990       -0.54927
B          3.13582       -3.21732       -0.40427
B          1.70251       -4.06188       -0.42201
B          0.30333       -3.28273        0.25589
B          0.27886       -4.72113       -0.59112
B         -2.55524       -3.27597       -0.09421
B         -1.14637       -4.10538       -0.32652
B         -2.56672       -1.64290        0.30648
B         -3.95899       -2.45150       -0.25506
B         -4.02273       -0.76533        0.22223
B         -1.14519       -2.47982        0.47959
B         -1.10844        2.58823        0.54533
B          3.24636        0.12132        0.60330
B         -1.11063       -0.75753        0.64531
B          4.48380        2.39391       -0.48787
B         -5.24461        1.83145       -0.72328
B         -5.25706        0.19743       -0.51051
B         -5.26972       -1.63050       -0.76818
B         -6.41898       -0.65938       -1.37516
B         -6.40772        0.89317       -1.35502
B          1.76244       -0.79324        0.77323
B         -2.41879       -0.83929        2.81659
B          0.33141        1.76449        0.85073
B          5.99023        1.67448       -0.68888
B          6.17381       -0.03919       -0.77321
B          5.96360       -1.76743       -0.80416
B         -0.76089       -1.45931        0.63158
