45
isomer_0066.log	Energy: -113458.7274562
B         -2.54818        1.66127        0.63363
B         -2.53517        3.38142        0.04979
B         -1.18659        4.14517       -0.02610
B          0.27590        3.43564        0.64976
B         -1.20205        0.93609        1.06782
B          1.75076        0.92379        0.98447
B          1.65028        4.15763       -0.20249
B         -3.90609        0.91287        0.15337
B          1.71179        2.56913        0.47413
B         -3.79652        2.51387       -0.20410
B          0.22662        4.70593       -0.32049
B          3.01826        3.32110       -0.27038
B          3.08990        1.74570        0.22326
B          4.36374        0.78601       -0.39327
B          0.28767       -1.73418        1.45911
B          1.41244       -2.41362        0.05045
B          3.00282       -1.72001        0.11237
B          4.46550       -0.86957       -0.10304
B          4.21099       -2.50460       -0.75859
B          2.87483       -3.28811       -0.30002
B          1.55379       -4.14081       -0.01295
B          0.22665       -3.32592        0.93030
B          0.17827       -4.71429        0.06825
B         -2.52849       -3.31064       -0.05310
B         -1.22883       -4.12181        0.17871
B         -2.57330       -1.60380        0.44100
B         -3.80934       -2.45073       -0.30914
B         -3.90206       -0.85311        0.11123
B         -1.09318       -2.40366        0.24879
B         -1.19955        2.57598        0.74144
B          3.15283       -0.00155        0.50403
B         -1.21684       -0.74238        0.83784
B          4.33781        2.46278       -0.76389
B         -5.09164        1.69114       -0.77220
B         -5.16071        0.03882       -0.43886
B         -5.12659       -1.60665       -0.86056
B         -6.13951       -0.69722       -1.54677
B         -6.12812        0.79917       -1.51789
B          1.58144       -0.75366        0.51664
B          0.24822        0.00399        1.24208
B          0.32728        1.81893        1.20806
B          5.43167        1.53368       -1.27543
B          5.57658       -0.04280       -1.26689
B          5.31611       -1.56526       -1.25871
B          0.10065       -1.25570       -0.23167
