45
isomer_0663.log	Energy: -113597.6473166
B          2.37540        1.66071       -0.66277
B          2.43864        3.35300       -0.37664
B          1.18453        4.26786       -0.63768
B         -0.25568        3.43486       -0.95756
B          1.18887        0.85265       -1.67248
B         -1.47674        0.82993       -0.60053
B         -1.57796        4.25176       -0.14744
B          3.29149        0.86217        0.45825
B         -1.60487        2.53511       -0.56712
B          3.63846        2.47483        0.25613
B         -0.21104        4.91057       -0.34051
B         -2.89339        3.34371        0.18950
B         -2.90259        1.69375       -0.01652
B         -4.22511        0.82148        0.55535
B         -0.27308       -1.72194       -1.26722
B         -1.60474       -2.53552       -0.56563
B         -2.90014       -1.72614        0.03027
B         -4.24984       -0.83094        0.50635
B         -4.07620       -2.52492        0.93949
B         -2.88542       -3.35453        0.18441
B         -1.55634       -4.23328       -0.14916
B         -0.25361       -3.41477       -0.92936
B         -0.19391       -4.89227       -0.33444
B          2.45366       -3.32995       -0.40773
B          1.19714       -4.23753       -0.62885
B          2.37945       -1.63837       -0.68114
B          3.66291       -2.47376        0.22481
B          3.35199       -0.89101        0.41904
B          1.22891       -2.61859       -1.32316
B          1.22764        2.63393       -1.33029
B         -2.99547       -0.00927       -0.28640
B          1.18911       -0.83844       -1.67259
B         -4.06795        2.50235        0.95802
B          4.56855        1.71145        1.28440
B          4.46325        0.01324        1.33094
B          4.60131       -1.71718        1.24416
B          5.46879       -0.76427        2.25895
B          5.46332        0.75807        2.27363
B         -1.48830       -0.84400       -0.58744
B          1.79241       -0.01478       -0.16900
B         -0.26618        1.73341       -1.28529
B         -5.03828        1.55558        1.68166
B         -5.20453       -0.00597        1.70315
B         -5.04488       -1.56971        1.64446
B          0.08041       -0.01326       -0.54605
