45
isomer_0664.log	Energy: -113439.1039996
B         -2.48693        1.75271        0.53346
B         -2.43448        3.40125       -0.08155
B         -1.06856        4.17490       -0.29344
B          0.38169        3.41497        0.29328
B         -1.14887        0.95041        1.06702
B          1.76229        0.88032        0.72358
B          1.75464        4.14224       -0.46781
B         -3.81997        0.97617        0.20979
B          1.80670        2.56295        0.41922
B         -3.83825        2.63493       -0.04808
B          0.36118        4.73422       -0.60668
B          3.13843        3.28279       -0.38465
B          3.19152        1.71559        0.15345
B          4.63105        0.78093        0.03902
B          0.30538       -1.66379        1.31095
B          1.59705       -2.48220        0.58159
B          3.06093       -1.71424        0.34898
B          4.42411       -0.86076       -0.20269
B          4.30709       -2.52164       -0.57958
B          2.88099       -3.24461       -0.15138
B          1.44294       -3.95542       -0.26411
B         -0.03771       -3.24242        0.37286
B          0.12660       -4.46777       -0.71598
B         -2.60187       -3.18400       -0.80965
B         -1.30184       -4.05033       -0.85253
B         -2.45152       -1.73131        0.43208
B         -3.68788       -2.14431       -0.64453
B         -3.74623       -0.71696        0.11286
B         -1.78575       -3.40905        0.57209
B         -1.13612        2.66200        0.58261
B          3.26711        0.00611        0.67141
B         -1.25363       -0.65252        1.02690
B          4.45465        2.40806       -0.71726
B         -5.16172        1.87702       -0.45555
B         -5.20279        0.17065       -0.12598
B         -5.11904       -1.36052       -0.76750
B         -6.28578       -0.51542       -1.19672
B         -6.19959        0.97093       -1.16077
B          1.71183       -0.77354        1.02624
B         -1.12744       -2.31278        1.43921
B          0.37233        1.88301        0.96172
B          5.49241        1.38267       -1.16463
B          5.69671       -0.15141       -1.10348
B          5.47165       -1.70119       -1.06884
B          0.25669        0.09137        0.98510
