45
isomer_0665.log	Energy: -113524.2519172
B          2.47394        1.49276       -0.02971
B          2.43932        3.25643        0.37812
B          1.06458        3.95134        0.55483
B         -0.44218        2.98166        0.71852
B          1.13017        0.62243       -0.03200
B         -1.73080        0.61445       -0.41671
B         -1.79338        3.97946        0.25067
B          3.93994        0.99051       -0.45369
B         -1.76150        2.29415       -0.09620
B          3.83836        2.54759        0.13270
B         -0.37954        4.54186        0.45075
B         -3.17139        3.20558       -0.10062
B         -3.18328        1.58206       -0.50523
B         -4.62931        0.75272       -0.88316
B         -0.27810       -1.85036       -1.20375
B         -1.43198       -2.03497        0.20519
B         -3.05298       -1.71328       -0.31830
B         -4.56033       -0.82664       -0.25052
B         -4.35444       -2.31776        0.61161
B         -2.88515       -2.94937        0.70259
B         -1.45538       -3.61995        0.91065
B         -0.22807       -3.35299       -0.30346
B          0.01178       -3.67460        1.39161
B          2.71852       -2.85325        0.11289
B          1.37691       -3.29074        0.90217
B          2.67330       -1.42446       -0.78780
B          4.08181       -2.14224       -0.15162
B          4.08446       -0.65892       -0.85408
B          1.27296       -2.62262       -0.77199
B          1.10107        2.24729        0.41361
B         -3.20833       -0.11770       -1.04931
B          1.11916       -0.94555       -0.56964
B         -4.59422        2.42660       -0.19333
B          5.24647        1.80588        0.28788
B          5.43756        0.28351       -0.50632
B          5.52506       -1.39861       -0.24233
B          6.70957       -0.53392        0.19387
B          6.50228        0.88614        0.55227
B         -1.67857       -0.94204       -1.16957
B          0.26140       -1.95213        0.75607
B         -0.41233        1.32556        0.36522
B         -5.72850        1.46105        0.03226
B         -5.95712       -0.06699        0.24839
B         -5.69235       -1.53816        0.58821
B         -0.39939       -0.42179        0.12929
