45
isomer_0668.log	Energy: -113312.5314472
B         -2.35858        1.71551        0.38556
B         -2.28185        3.36250       -0.11271
B         -0.91817        4.16537       -0.17131
B          0.50392        3.42808        0.47707
B         -0.99965        0.94434        1.10054
B          1.78150        0.83571        0.76492
B          1.89310        4.15304       -0.20149
B         -3.83142        0.95613        0.42871
B          1.87872        2.50355        0.51413
B         -3.67367        2.53650       -0.21845
B          0.52619        4.77125       -0.38333
B          3.25072        3.23961       -0.16218
B          3.29230        1.65788        0.28788
B          4.68580        0.69923       -0.03084
B          0.28491       -1.54935        0.81881
B          1.52722       -2.49080        0.33047
B          3.11782       -1.78350        0.24937
B          4.62848       -0.97075       -0.00451
B          4.26352       -2.64823       -0.59214
B          2.88345       -3.35129       -0.18283
B          1.33948       -4.03099       -0.27383
B         -0.04696       -3.20683        1.03186
B         -0.06551       -4.53993        0.03078
B         -2.80163       -3.08430       -0.01888
B         -1.38769       -3.73451       -0.07280
B         -2.91415       -1.40417       -0.22198
B         -4.15616       -2.44210        0.13111
B         -4.10540       -0.67994        0.55853
B         -1.28348       -1.96341        0.12441
B         -1.01127        2.66271        0.63950
B          3.24868       -0.08138        0.65162
B         -2.20457       -0.11820        0.36663
B          4.51134        2.33846       -0.65226
B         -4.97621        1.85428       -0.72494
B         -5.11746        0.21578       -0.40053
B         -5.21462       -1.48966       -0.52607
B         -6.18486       -0.50802       -1.34443
B         -6.12832        0.98449       -1.37457
B          1.78025       -0.76521        0.71618
B         -0.89936       -0.55669        1.19081
B          0.47496        1.76331        0.98810
B          5.52431        1.34079       -1.20405
B          5.66834       -0.22303       -1.14120
B          5.41895       -1.76544       -1.11024
B          0.07705       -2.74080       -0.66140
