45
isomer_0669.log	Energy: -113478.6842108
B          2.52986        1.65088       -0.57148
B          2.49800        3.31167        0.04979
B          1.12534        4.09490        0.26992
B         -0.31107        3.38758       -0.35778
B          1.16168        0.90145       -1.02431
B         -1.77754        0.90124       -0.93902
B         -1.69103        4.14785        0.41742
B          3.94365        0.91857       -0.29050
B         -1.75313        2.55750       -0.43317
B          3.84040        2.50019        0.10175
B         -0.28338        4.69322        0.57152
B         -3.06387        3.29778        0.36218
B         -3.14935        1.75849       -0.21980
B         -4.49401        0.79877        0.22007
B         -0.18467       -1.58807       -0.38822
B         -1.66435       -2.46961       -0.36527
B         -3.12013       -1.69571       -0.40035
B         -4.58304       -0.83692       -0.16606
B         -4.39731       -2.45968        0.43623
B         -3.03286       -3.30442        0.05494
B         -1.65985       -4.12732        0.12054
B         -0.14414       -3.31266       -0.57649
B         -0.30970       -4.54503        0.53641
B          2.47709       -3.12710        0.42798
B          1.11366       -3.88572        0.48380
B          2.56886       -1.70288       -0.61065
B          3.83657       -2.31082        0.39363
B          3.94262       -0.82253       -0.24650
B          1.31600       -2.73467       -1.06014
B          1.17258        2.60352       -0.64989
B         -3.25728        0.06069       -0.66980
B          1.27556       -0.73571       -0.74627
B         -4.41963        2.46036        0.73370
B          5.22970        1.72102        0.49900
B          5.29290        0.07033        0.09394
B          5.22069       -1.52475        0.65807
B          6.32335       -0.60550        1.21453
B          6.32662        0.86944        1.13002
B         -1.67226       -0.74914       -0.71225
B          1.11373       -2.05775        0.55401
B         -0.34422        1.86437       -1.04450
B         -5.56098        1.52717        1.14062
B         -5.73208       -0.01836        1.05458
B         -5.45510       -1.53857        0.99627
B         -0.24790        0.05595       -1.04848
