45
isomer_0067.log	Energy: -113675.8787376
B         -2.56003        1.73236        0.52788
B         -2.50884        3.30483       -0.03671
B         -1.15075        4.14942       -0.11075
B          0.27263        3.40202        0.53686
B         -1.16802        0.85023        1.06904
B          1.72096        0.84336        0.79778
B          1.64697        4.16787       -0.25957
B         -3.98242        0.84841        0.22416
B          1.72864        2.55045        0.43405
B         -3.86669        2.48759       -0.27608
B          0.22598        4.74796       -0.35432
B          3.01220        3.33636       -0.27962
B          3.13129        1.73061        0.22366
B          4.54571        0.88897       -0.15150
B          0.36585       -1.82622        1.11612
B          1.79786       -2.53295        0.48590
B          3.17101       -1.68237        0.25840
B          4.53379       -0.80313       -0.23100
B          4.40320       -2.44709       -0.75026
B          3.08692       -3.28248       -0.26738
B          1.74241       -4.14502       -0.24781
B          0.34658       -3.38621        0.51576
B          0.33552       -4.74647       -0.35220
B         -2.43220       -3.33368       -0.03948
B         -1.05284       -4.15741       -0.12212
B         -2.51019       -1.75783        0.48600
B         -3.81256       -2.53455       -0.29297
B         -3.95689       -0.90674        0.21485
B         -1.12253       -2.58950        0.76697
B         -1.18236        2.57844        0.78977
B          3.29390        0.01455        0.60903
B         -1.13242       -0.84904        1.04537
B          4.33068        2.49596       -0.77085
B         -5.10212        1.65634       -0.84643
B         -5.19490       -0.03994       -0.52371
B         -5.06307       -1.73435       -0.86423
B         -6.08598       -0.80849       -1.61242
B         -6.10401        0.71251       -1.60589
B          1.78090       -0.83049        0.90486
B         -2.60964       -0.01463        0.74611
B          0.31555        1.83160        1.09081
B          5.37914        1.56732       -1.33749
B          5.61973        0.02989       -1.30489
B          5.46825       -1.52157       -1.30353
B          0.34277        0.00311        1.09785
