45
isomer_0670.log	Energy: -111672.2912076
B         -2.59725       -1.69393       -0.50984
B         -2.58532       -3.33287       -0.13123
B         -1.18343       -4.16811        0.11273
B          0.27346       -3.33698       -0.42786
B         -1.14050       -0.82448       -0.81269
B          1.73982       -0.82532       -0.88374
B          1.66037       -4.11803        0.26240
B         -4.04020       -0.80580       -0.43691
B          1.66069       -2.43899       -0.32517
B         -3.98762       -2.49495        0.01600
B          0.23836       -4.77385        0.39337
B          3.08949       -3.26744        0.28439
B          3.12200       -1.64665       -0.27729
B          4.57742       -0.82843        0.22455
B          0.31160        1.76201       -0.94854
B          1.69474        2.44328       -0.31898
B          3.14508        1.63044       -0.27400
B          4.58529        0.79355        0.22515
B          4.43804        2.35644        0.47652
B          3.13496        3.24978        0.29261
B          1.72058        4.11978        0.27603
B          0.32394        3.36124       -0.41666
B          0.31122        4.79619        0.41022
B         -2.53267        3.40007       -0.11467
B         -1.11920        4.21162        0.13038
B         -2.56554        1.76290       -0.49877
B         -3.94904        2.58063        0.03036
B         -4.02741        0.89960       -0.43111
B         -1.13298        2.58449       -0.65575
B         -1.17330       -2.53929       -0.66590
B          3.21877       -0.10413       -0.67117
B         -1.12274        0.87516       -0.80126
B          4.40898       -2.39325        0.47177
B         -5.29781       -1.67835        0.51818
B         -5.28051       -0.04164        0.28777
B         -5.26836        1.77912        0.52557
B         -6.43169        0.83067        1.11963
B         -6.45032       -0.71094        1.11888
B          1.75157        0.83435       -0.88160
B         -0.78440       -0.32871        2.42142
B          0.28961       -1.73198       -0.95152
B          5.89454       -1.66915        0.68578
B          6.09531        0.02528        0.75045
B          5.91186        1.73304        0.75648
B         -0.92740       -0.27631       -0.35600
