45
isomer_0671.log	Energy: -112452.3973142
B         -2.55045       -1.69690       -0.46563
B         -2.54119       -3.33424       -0.08271
B         -1.13427       -4.16177        0.16745
B          0.32357       -3.32822       -0.37803
B         -1.09110       -0.80331       -0.76678
B          1.78400       -0.82864       -0.84000
B          1.71211       -4.11043        0.31798
B         -4.01071       -0.82487       -0.39969
B          1.70484       -2.43213       -0.27698
B         -3.95050       -2.51598        0.06023
B          0.28769       -4.77594        0.45255
B          3.14267       -3.26125        0.33696
B          3.16911       -1.64074       -0.23215
B          4.62549       -0.82491        0.26929
B          0.34620        1.72531       -0.91689
B          1.72507        2.42355       -0.28607
B          3.18270        1.62017       -0.23825
B          4.63224        0.79411        0.26626
B          4.47011        2.35290        0.50785
B          3.16977        3.24296        0.32479
B          1.74634        4.10395        0.30260
B          0.35131        3.33074       -0.39049
B          0.32751        4.78181        0.43466
B         -2.51329        3.36174       -0.09525
B         -1.09952        4.17844        0.15184
B         -2.53620        1.72311       -0.47203
B         -3.92937        2.55579        0.05074
B         -4.00368        0.86353       -0.40285
B         -1.10197        2.54113       -0.63012
B         -1.12308       -2.52743       -0.62064
B          3.26051       -0.11138       -0.63129
B         -1.08435        0.81627       -0.76981
B          4.45038       -2.38138        0.51671
B         -5.27353       -1.70479        0.55711
B         -5.26286       -0.07409        0.32015
B         -5.25911        1.75751        0.55063
B         -6.43095        0.80870        1.14965
B         -6.43742       -0.74401        1.15256
B          1.79086        0.81737       -0.84308
B         -2.92056        0.12108        0.78323
B          0.33183       -1.72478       -0.91043
B          5.96101       -1.67622        0.73600
B          6.16292        0.03632        0.79863
B          5.97233        1.76711        0.80014
B         -0.37646       -0.24019       -0.35881
