45
isomer_0673.log	Energy: -113504.7588099
B         -2.95486       -0.81322       -0.48857
B         -2.98193       -2.62815        0.00540
B         -1.75602       -3.58199        0.10399
B         -0.19440       -2.93555        0.02277
B         -1.27702       -0.25796       -0.74461
B          1.65144       -0.84855       -0.71365
B          1.04080       -4.05360        0.37616
B         -4.49441       -0.63052       -0.92786
B          1.38141       -2.46136       -0.21067
B         -4.36613       -1.93117        0.04204
B         -0.43138       -4.45664        0.34168
B          2.61148       -3.44538        0.37480
B          2.92629       -1.92291       -0.15622
B          4.47302       -1.23598        0.06574
B          0.60121        1.79252       -1.32643
B          2.12243        2.43492       -0.79766
B          3.47960        1.42925       -0.53977
B          4.78106        0.35809       -0.36622
B          4.81006        2.02691        0.27113
B          3.55300        2.99422       -0.05713
B          2.16802        3.70914        0.39701
B          0.62913        3.24103       -0.35899
B          0.88034        3.91888        1.08739
B         -1.88356        2.41458        0.92639
B         -0.53457        3.23794        0.94222
B         -2.22458        1.18211       -0.32676
B         -3.40796        2.03292        0.76913
B         -3.88012        0.80022       -0.25573
B         -0.97753        2.70394       -0.67530
B         -1.58953       -1.94482       -0.44312
B          3.32143       -0.32084       -0.79673
B         -0.89996        1.19699       -1.45263
B          4.09286       -2.84244        0.69089
B         -5.77873       -1.26862        0.16379
B         -5.55216        0.41453       -0.18400
B         -4.87813        1.64647        0.87481
B         -6.29649        0.99162        1.12760
B         -6.83474       -0.28040        0.63904
B          1.91569        0.75821       -0.93026
B         -0.58512        1.41345        0.49232
B          0.05598       -1.37648       -0.55839
B          5.37442       -2.08580        1.06928
B          5.79195       -0.60184        0.91790
B          5.72060        0.93287        0.82868
B          0.39711        0.29342       -0.21945
