45
isomer_0675.log	Energy: -113498.3409073
B         -2.36416       -1.55101        0.14250
B         -2.45699       -3.30018        0.17045
B         -1.06824       -4.10609        0.26868
B          0.37010       -3.36381       -0.35241
B         -1.02008       -0.81468       -0.69485
B          1.73725       -0.80936       -0.77498
B          1.76588       -4.14150        0.27109
B         -3.83696       -0.89193       -0.36982
B          1.78855       -2.48736       -0.39939
B         -3.84038       -2.50020        0.27962
B          0.37502       -4.72785        0.45288
B          3.15750       -3.28313        0.16684
B          3.23325       -1.71912       -0.30714
B          4.66716       -0.82800       -0.09376
B          0.37899        1.70920       -0.85417
B          1.78556        2.48831       -0.39748
B          3.23105        1.72160       -0.30650
B          4.66484        0.83111       -0.08907
B          4.53013        2.47178        0.49849
B          3.15357        3.28445        0.17053
B          1.76129        4.14143        0.27424
B          0.36664        3.36387       -0.35322
B          0.36983        4.72649        0.45507
B         -2.46077        3.29850        0.16740
B         -1.07278        4.10478        0.26805
B         -2.36658        1.54936        0.14120
B         -3.84375        2.49817        0.27570
B         -3.83919        0.88985       -0.37431
B         -1.11509        2.56809       -0.44164
B         -1.11212       -2.56881       -0.43905
B          3.27043        0.00139       -0.67880
B         -1.02105        0.81445       -0.69752
B          4.53346       -2.46948        0.49455
B         -5.18821       -1.70713        0.44653
B         -5.12482       -0.00157        0.25687
B         -5.19088        1.70445        0.44176
B         -6.44202        0.76355        0.70049
B         -6.44065       -0.76745        0.70298
B          1.73677        0.81109       -0.77731
B         -2.54282       -0.00026       -1.11378
B          0.38050       -1.70849       -0.85144
B          5.66886       -1.54177        0.91293
B          5.86271        0.00193        0.88915
B          5.66754        1.54562        0.91574
B         -2.10934       -0.00026        0.60291
