45
isomer_0678.log	Energy: -112475.0138950
B         -2.62773        1.70808        0.40518
B         -2.62144        3.34475        0.01932
B         -1.21563        4.17701       -0.22113
B          0.24086        3.34985        0.33750
B         -1.16755        0.82044        0.71961
B          1.70675        0.85653        0.81573
B          1.63203        4.13592       -0.34885
B         -4.08420        0.83054        0.32920
B          1.62618        2.45869        0.24913
B         -4.02654        2.52103       -0.13335
B          0.20629        4.79592       -0.49601
B          3.06582        3.29201       -0.35485
B          3.09367        1.67264        0.21745
B          4.55701        0.86129       -0.27084
B          0.27780       -1.70257        0.88585
B          1.66422       -2.39686        0.26735
B          3.11922       -1.58818        0.22968
B          4.56969       -0.75769       -0.26477
B          4.41524       -2.31751       -0.50477
B          3.11676       -3.21203       -0.33044
B          1.69638       -4.07823       -0.31803
B          0.29302       -3.30893        0.36248
B          0.28116       -4.76157       -0.46015
B         -2.56899       -3.35105        0.04444
B         -1.15030       -4.16297       -0.18985
B         -2.60094       -1.71183        0.41801
B         -3.98682       -2.55061       -0.11432
B         -4.07098       -0.85781        0.33553
B         -1.16502       -2.52426        0.58905
B         -1.20472        2.54416        0.57003
B          3.18751        0.14436        0.62013
B         -1.15487       -0.79909        0.72569
B          4.37815        2.41665       -0.52253
B         -5.34257        1.70405       -0.63927
B         -5.32780        0.07383       -0.39922
B         -5.31545       -1.75816       -0.62629
B         -6.48596       -0.81478       -1.23639
B         -6.49812        0.73789       -1.24222
B          1.71964       -0.78943        0.82191
B         -1.00728        0.15794        1.58882
B          0.25077        1.74743        0.87291
B          5.89306        1.71668       -0.72845
B          6.10178        0.00479       -0.78631
B          5.91758       -1.72670       -0.78614
B          0.61233       -0.90224       -0.45083
