45
isomer_0068.log	Energy: -113410.0192218
B         -2.50562       -1.47892       -0.35794
B         -2.50706       -3.15952        0.15171
B         -1.40306       -4.26422        0.60831
B          0.10198       -3.22810       -0.46492
B         -1.30739       -0.66727       -1.13161
B          1.67337       -0.78197       -0.77056
B          1.47246       -4.05040        0.17271
B         -3.73804       -0.60823        0.17448
B          1.62759       -2.48224       -0.47811
B         -3.72905       -2.21985        0.49715
B          0.02940       -4.63363        0.38026
B          2.89570       -3.28054        0.27055
B          3.06896       -1.69534       -0.21377
B          4.55694       -0.89362        0.03195
B          0.36954        1.82896       -1.13475
B          1.83417        2.58918       -0.42897
B          3.15692        1.69330       -0.17306
B          4.50413        0.77624        0.32178
B          4.46856        2.42244        0.78299
B          3.12050        3.27762        0.36977
B          1.75920        4.12193        0.31814
B          0.35951        3.42856       -0.49294
B          0.33887        4.74162        0.40132
B         -2.46536        3.43499       -0.06931
B         -1.05784        4.19788        0.05915
B         -2.51751        1.80516       -0.58325
B         -3.85846        2.67597        0.12829
B         -3.77684        1.02179        0.10257
B         -1.17404        2.67838       -0.78954
B         -1.31001       -2.36134       -1.13014
B          3.24648        0.01206       -0.57132
B         -1.19176        0.99132       -1.20478
B          4.25811       -2.49854        0.69165
B         -5.11074       -1.41112        0.91276
B         -5.20293        0.19235        0.32604
B         -5.14432        1.91783        0.64635
B         -6.17751        0.98755        1.36475
B         -6.23628       -0.51330        1.39869
B          1.82772        0.94086       -0.97536
B         -1.37479       -3.93854       -0.90813
B          0.22869       -1.54117       -0.86909
B          5.37246       -1.58862        1.21920
B          5.69032       -0.08727        1.20190
B          5.57983        1.49568        1.23285
B          0.24717        0.15205       -1.01779
