45
isomer_0681.log	Energy: -113372.2264582
B          2.56032       -1.64056        0.50063
B          2.39304       -3.23885       -0.10965
B          0.98269       -4.03659       -0.03604
B         -0.46548       -3.31728        0.78527
B          1.23713       -0.80117        1.08875
B         -1.90413       -0.91140        1.23429
B         -1.69602       -3.98267       -0.50207
B          3.90389       -0.87349        0.00859
B         -2.07641       -2.70846        0.60385
B          3.74209       -2.44122       -0.40845
B         -0.36323       -4.59258       -0.30134
B         -3.00338       -3.09267       -0.73266
B         -3.15571       -1.63132       -0.02730
B         -4.25500       -0.53423       -0.67015
B         -0.17221        1.71228        0.95165
B         -1.59666        2.55404        0.65072
B         -3.00975        1.79793        0.32266
B         -4.44934        1.01855       -0.15148
B         -4.16692        2.68916       -0.58138
B         -2.84337        3.42238       -0.03396
B         -1.45941        4.22079       -0.01988
B         -0.08987        3.29504        0.43963
B         -0.02806        4.76875       -0.17236
B          2.70515        3.30342       -0.03494
B          1.36187        4.11940       -0.06114
B          2.72077        1.61311        0.60774
B          3.94998        2.44361       -0.27210
B          4.04146        0.84096        0.10087
B          1.34033        2.42525        0.54829
B          1.15482       -2.50394        0.63035
B         -3.21686        0.05628        0.53669
B          1.36412        0.81548        1.04515
B         -4.21843       -2.15785       -1.27834
B          5.09229       -1.70805       -0.94177
B          5.26595       -0.07742       -0.45310
B          5.25543        1.56568       -0.82435
B          6.24360        0.64353       -1.56734
B          6.15991       -0.84437       -1.61969
B         -1.65921        0.79446        0.95210
B         -1.44949       -2.32834        1.98309
B         -0.15670       -1.70402        1.40296
B         -5.23579       -1.16089       -1.78719
B         -5.40651        0.35141       -1.59737
B         -5.17575        1.84758       -1.32586
B         -0.22117       -0.01172        1.11664
