45
isomer_0682.log	Energy: -111898.2889274
B         -2.57829       -1.65974       -0.50844
B         -2.57913       -3.29842       -0.13119
B         -1.17755       -4.13433        0.12104
B          0.28664       -3.30672       -0.41640
B         -1.11312       -0.77294       -0.80133
B          1.76203       -0.81341       -0.86452
B          1.66852       -4.09876        0.28176
B         -4.03409       -0.78013       -0.44460
B          1.67231       -2.41839       -0.30737
B         -3.98454       -2.47313        0.00964
B          0.24009       -4.75709        0.40900
B          3.10352       -3.25733        0.30874
B          3.14063       -1.63502       -0.25462
B          4.59957       -0.82874        0.25478
B          0.33819        1.74845       -0.93757
B          1.71852        2.43711       -0.29947
B          3.17166        1.62577       -0.24932
B          4.61497        0.79022        0.25741
B          4.46032        2.34902        0.50386
B          3.16541        3.24665        0.31932
B          1.74669        4.11532        0.29512
B          0.35001        3.35200       -0.40557
B          0.33104        4.80031        0.42454
B         -2.51541        3.39731       -0.12031
B         -1.09818        4.20557        0.13460
B         -2.54574        1.76015       -0.50288
B         -3.93628        2.59846        0.01788
B         -4.01802        0.90820       -0.44186
B         -1.10661        2.57102       -0.65307
B         -1.15484       -2.49736       -0.66131
B          3.24160       -0.10480       -0.64811
B         -1.09771        0.84658       -0.79870
B          4.41527       -2.38510        0.49616
B         -5.30497       -1.65658        0.50468
B         -5.28476       -0.02516        0.27344
B         -5.27203        1.80559        0.51031
B         -6.45104        0.86100        1.10189
B         -6.46581       -0.69165        1.09937
B          1.77770        0.83254       -0.86184
B         -2.11995       -0.42446        1.87341
B          0.30535       -1.70151       -0.94318
B          5.92885       -1.68880        0.72322
B          6.13969        0.02241        0.79252
B          5.95834        1.75418        0.79939
B         -0.29883       -0.61829       -0.26043
