45
isomer_0685.log	Energy: -113675.8844681
B          2.56207        1.73145       -0.52915
B          2.51138        3.30392        0.03780
B          1.15404        4.14911        0.11010
B         -0.27068        3.40248       -0.53785
B          1.16914        0.85039       -1.06830
B         -1.71876        0.84309       -0.79127
B         -1.64394        4.16869        0.25872
B          3.98329        0.84663       -0.22387
B         -1.72624        2.55077       -0.43277
B          3.86835        2.48610        0.27656
B         -0.22245        4.74787        0.35388
B         -3.01018        3.33871        0.27857
B         -3.12972        1.73184       -0.22131
B         -4.54706        0.89201        0.14658
B         -0.36784       -1.82522       -1.11604
B         -1.80075       -2.53289       -0.48739
B         -3.17254       -1.68097       -0.25940
B         -4.53282       -0.80012        0.23523
B         -4.40547       -2.44533        0.75007
B         -3.09012       -3.28123        0.26704
B         -1.74605       -4.14443        0.24714
B         -0.34939       -3.38495       -0.51415
B         -0.33920       -4.74566        0.35313
B          2.42901       -3.33364        0.04041
B          1.04956       -4.15692        0.12301
B          2.51174       -1.75990       -0.49109
B          3.81127       -2.53602        0.29219
B          3.95723       -0.90878       -0.21577
B          1.12055       -2.58922       -0.76548
B          1.18424        2.57762       -0.78823
B         -3.29386        0.01535       -0.60902
B          1.13128       -0.84874       -1.04355
B         -4.32828        2.49819        0.77001
B          5.10391        1.65362        0.84560
B          5.19650       -0.04258        0.52183
B          5.06203       -1.73682        0.86406
B          6.08504       -0.81180        1.61244
B          6.10426        0.70899        1.60587
B         -1.78456       -0.83051       -0.90905
B          2.60923       -0.01527       -0.74510
B         -0.31367        1.83076       -1.08828
B         -5.37571        1.56858        1.33730
B         -5.62026        0.03206        1.30393
B         -5.47165       -1.51974        1.30200
B         -0.34291        0.00249       -1.09643
