45
isomer_0686.log	Energy: -113420.2499724
B          2.50788       -1.75489        0.29998
B          2.36751       -3.34854       -0.30346
B          0.92203       -4.13353       -0.34524
B         -0.42204       -3.29912        0.27095
B          1.19113       -0.80739        0.72547
B         -1.68942       -0.68664        1.09618
B         -1.90217       -4.06593       -0.13339
B          3.89482       -0.99150        0.03178
B         -1.86352       -2.44066        0.58652
B          3.78470       -2.58972       -0.39059
B         -0.51417       -4.71953       -0.41104
B         -3.22861       -3.17128        0.01965
B         -3.20872       -1.53699        0.53369
B         -4.55175       -0.66357        0.03404
B         -0.21506        1.76059        0.92891
B         -1.51589        2.58994        0.16471
B         -2.91633        1.73413       -0.08329
B         -4.43812        1.03171       -0.08900
B         -4.18694        2.55192       -0.90515
B         -2.80222        3.37540       -0.51315
B         -1.42560        4.18028       -0.40533
B         -0.11128        3.41870        0.57868
B          0.03367        4.69230       -0.41020
B          2.71417        3.19031        0.08400
B          1.37002        4.09565       -0.02694
B          2.68407        1.58550        0.73800
B          3.97105        2.27517       -0.09601
B          3.99809        0.69255        0.29941
B          1.32094        2.50895        0.66862
B          1.09771       -2.55427        0.37473
B         -3.14954        0.13021        0.59241
B          1.22077        0.77997        1.02436
B         -4.57943       -2.35924       -0.34706
B          5.16433       -1.80494       -0.78347
B          5.31450       -0.21043       -0.14047
B          5.35087        1.44441       -0.47548
B          6.41372        0.58535       -1.11628
B          6.27128       -0.89302       -1.30913
B         -1.47089        0.81609        0.13645
B         -0.17238       -0.15853       -0.10014
B         -0.33717       -1.68977        0.78949
B         -5.61984       -1.42225       -0.90220
B         -5.66666        0.11782       -1.04313
B         -5.32844        1.64095       -1.26697
B         -0.27710        0.10383        1.61907
