45
isomer_0069.log	Energy: -113458.7377920
B         -2.54993        1.65995        0.63865
B         -2.53903        3.38219        0.05791
B         -1.19107        4.14676       -0.01551
B          0.27317        3.43705        0.65819
B         -1.20233        0.93711        1.07422
B          1.74949        0.92483        0.98455
B          1.64555        4.15981       -0.19717
B         -3.90588        0.91192        0.15404
B          1.70878        2.57085        0.47745
B         -3.79786        2.51306       -0.20012
B          0.22189        4.70793       -0.31134
B          3.01355        3.32376       -0.26936
B          3.08623        1.74764        0.22130
B          4.35712        0.78912       -0.40321
B          0.28893       -1.73405        1.46239
B          1.40745       -2.41313        0.05343
B          2.99972       -1.71796        0.10864
B          4.46008       -0.86611       -0.11260
B          4.20674       -2.50166       -0.76498
B          2.87323       -3.28606       -0.29994
B          1.55768       -4.14144       -0.00235
B          0.23352       -3.33197        0.94634
B          0.18271       -4.71749        0.08254
B         -2.52170       -3.31528       -0.04846
B         -1.22492       -4.12766        0.19136
B         -2.56597       -1.61009        0.43635
B         -3.80158       -2.45438       -0.31558
B         -3.89066       -0.85462        0.09922
B         -1.08442       -2.41035        0.26287
B         -1.20212        2.57659        0.74636
B          3.14882        0.00059        0.49761
B         -1.21744       -0.73959        0.83229
B          4.33084        2.46629       -0.76978
B         -5.09072        1.68947       -0.77353
B         -5.14940        0.03485       -0.45424
B         -5.11339       -1.60989       -0.87682
B         -6.12574       -0.69934       -1.56455
B         -6.12257        0.79723       -1.52611
B          1.57792       -0.75209        0.51770
B          0.09816       -1.25369       -0.22950
B          0.32624        1.81866        1.21353
B          5.42351        1.53789       -1.28579
B          5.56943       -0.03904       -1.27797
B          5.30980       -1.56149       -1.26882
B          0.24617        0.00382        1.25081
