45
isomer_0690.log	Energy: -112688.4079390
B         -2.62798        1.69665        0.40380
B         -2.61740        3.33679        0.03310
B         -1.20955        4.16663       -0.20378
B          0.24582        3.32956        0.34288
B         -1.16983        0.80135        0.70571
B          1.70484        0.82712        0.79369
B          1.63758        4.11738       -0.34026
B         -4.08756        0.82463        0.32399
B          1.62793        2.43471        0.24219
B         -4.02566        2.51913       -0.12306
B          0.21360        4.78339       -0.47710
B          3.06854        3.26887       -0.35829
B          3.09271        1.64419        0.19891
B          4.55193        0.83260       -0.30118
B          0.26765       -1.72782        0.84433
B          1.64996       -2.42089        0.21535
B          3.10751       -1.61668        0.18088
B          4.55927       -0.78640       -0.31013
B          4.39896       -2.34341       -0.56410
B          3.09805       -3.23525       -0.39424
B          1.67485       -4.09687       -0.38566
B          0.27603       -3.32930        0.30607
B          0.25697       -4.77421       -0.52994
B         -2.58702       -3.35909       -0.00392
B         -1.17170       -4.17345       -0.24989
B         -2.61246       -1.72331        0.38490
B         -4.00264       -2.55257       -0.15109
B         -4.07989       -0.86374        0.31466
B         -1.17874       -2.54199        0.54418
B         -1.20173        2.52649        0.57220
B          3.18266        0.11194        0.58715
B         -1.16248       -0.81820        0.69676
B          4.37748        2.39080       -0.53793
B         -5.34585        1.71119       -0.63264
B         -5.33576        0.07878       -0.40774
B         -5.33014       -1.75106       -0.65178
B         -6.49929       -0.79822       -1.24968
B         -6.50634        0.75446       -1.24110
B          1.71231       -0.81886        0.78459
B         -0.16340       -0.67930        2.34196
B          0.25200        1.72222        0.86340
B          5.88946        1.68780       -0.75478
B          6.09234       -0.02415       -0.82910
B          5.90242       -1.75495       -0.84442
B          0.07452        0.62307       -0.13887
