45
isomer_0692.log	Energy: -113535.7057816
B         -2.72501       -1.09329       -0.80250
B         -3.26156       -2.65844       -0.76214
B         -2.18943       -3.84231       -0.63728
B         -0.54379       -3.53034       -1.17791
B         -2.21385        0.55356       -0.79932
B          0.91003       -0.98937       -0.67841
B          0.38905       -4.37226        0.11005
B         -3.79021        0.07269       -0.18605
B          0.87359       -2.83206       -0.55942
B         -4.26403       -1.55611       -0.13353
B         -1.03816       -4.72981       -0.20126
B          1.76390       -3.71643        0.54938
B          2.12923       -2.14048        0.15762
B          3.60421       -1.63405        0.79255
B          0.67438        1.68351       -1.56791
B          2.33762        2.10536       -1.08383
B          3.23036        1.01052       -0.27749
B          4.15945       -0.08325        0.61107
B          4.65759        1.54753        0.62243
B          3.76409        2.56230       -0.31173
B          2.69778        3.75293       -0.60589
B          1.14812        3.30965       -1.14066
B          1.52160        4.68857       -0.44237
B         -1.16938        3.50431        0.34604
B          0.04787        4.27548       -0.26959
B         -1.24558        1.73256        0.14761
B         -2.34549        2.82653        1.13238
B         -2.97152        1.48700        0.44198
B         -0.52400        2.82797       -1.03851
B         -1.73573       -2.29199       -1.32247
B          2.70198       -0.60936       -0.17644
B         -0.96714        1.24329       -1.63679
B          3.05212       -3.12763        1.35102
B         -5.13107       -0.57886        0.73887
B         -4.27859        0.80610        1.23437
B         -3.60374        2.23267        1.88280
B         -4.96403        1.60511        2.42168
B         -5.67995        0.40297        1.87250
B          1.61316        0.53489       -0.87809
B         -0.06122        0.57657       -0.27589
B         -0.09136       -1.99280       -1.63106
B          4.24011       -2.42615        2.01718
B          4.94266       -1.01245        1.84254
B          5.31993        0.49233        1.53933
B         -0.98401       -0.61696       -1.21486
