45
isomer_0693.log	Energy: -113469.5059241
B         -2.48575        1.73817        0.55880
B         -2.36212        3.37385       -0.25527
B         -0.97849        4.12025       -0.36949
B          0.43806        3.38053        0.33248
B         -1.13038        0.94736        0.99232
B          1.78119        0.82505        0.83766
B          1.86413        4.09077       -0.36191
B         -3.89998        1.04554        0.23209
B          1.84963        2.50236        0.53997
B         -3.69438        2.56502       -0.33216
B          0.47991        4.66467       -0.60950
B          3.21566        3.22739       -0.22488
B          3.24724        1.66504        0.34599
B          4.66008        0.69861        0.16294
B          0.15164       -1.76317        0.98496
B          1.57288       -2.47605        0.30853
B          3.01967       -1.76622        0.28328
B          4.40928       -0.90851       -0.20209
B          4.31646       -2.55307       -0.62631
B          2.84401       -3.28444       -0.38203
B          1.44205       -4.04546       -0.53822
B          0.05910       -2.90726       -0.35333
B          0.05925       -4.56679       -0.54472
B         -2.65841       -3.16775        0.17578
B         -1.32202       -3.92388       -0.17225
B         -2.59240       -1.46910        0.49931
B         -4.00469       -2.29998        0.01991
B         -4.02048       -0.70204        0.30329
B         -1.31668       -2.05014       -0.53812
B         -1.06117        2.54950        0.35717
B          3.26288       -0.07480        0.70035
B         -1.23282       -0.69963        0.77048
B          4.53064        2.35809       -0.51421
B         -5.12535        1.82996       -0.68665
B         -5.27499        0.23135       -0.15442
B         -5.32727       -1.44518       -0.45300
B         -6.36975       -0.51375       -1.12811
B         -6.27529        0.97159       -1.23471
B          1.68875       -0.84671        1.02731
B         -1.28487       -2.58592        1.14408
B          0.38877        1.81391        0.92419
B          5.58405        1.34776       -0.98007
B          5.76408       -0.17217       -0.97826
B          5.51110       -1.73358       -1.01610
B          0.27678        0.00882        1.15490
