45
isomer_0696.log	Energy: -112166.8984005
B          2.64173       -1.61589        0.37199
B          2.64043       -3.24706       -0.03655
B          1.23722       -4.07966       -0.29067
B         -0.22232       -3.26424        0.27719
B          1.17870       -0.73662        0.69651
B         -1.69563       -0.78174        0.78776
B         -1.61035       -4.04443       -0.42211
B          4.09594       -0.73349        0.31041
B         -1.60991       -2.37565        0.19910
B          4.04353       -2.41754       -0.17565
B         -0.18261       -4.69850       -0.57626
B         -3.04639       -3.20436       -0.41857
B         -3.07946       -1.59317        0.17611
B         -4.54426       -0.77904       -0.30309
B         -0.27370        1.77996        0.89557
B         -1.66107        2.47905        0.28466
B         -3.11382        1.66708        0.23357
B         -4.56132        0.83966       -0.27456
B         -4.41072        2.40307       -0.49265
B         -3.11492        3.29856       -0.30396
B         -1.69690        4.16830       -0.27737
B         -0.29248        3.39338        0.39452
B         -0.28332        4.85733       -0.40785
B          2.56988        3.44758        0.08143
B          1.14934        4.25887       -0.14371
B          2.60570        1.80343        0.43225
B          3.99009        2.65322       -0.08629
B          4.07815        0.95457        0.34016
B          1.16734        2.60955        0.61238
B          1.22074       -2.45799        0.52307
B         -3.17802       -0.07088        0.59982
B          1.16164        0.88263        0.72504
B         -4.36083       -2.33027       -0.57607
B          5.35809       -1.59009       -0.66819
B          5.33856        0.03659       -0.40556
B          5.32161        1.87152       -0.60718
B          6.49556        0.93984       -1.22855
B          6.51192       -0.61256       -1.25591
B         -1.71298        0.86394        0.81676
B          0.80427       -2.48342        1.56151
B         -0.23734       -1.66944        0.83477
B         -5.87732       -1.63156       -0.77455
B         -6.09057        0.08040       -0.80895
B         -5.91104        1.81220       -0.78448
B         -0.84312       -0.68317        0.16418
