45
isomer_0697.log	Energy: -110780.7205169
B         -2.54954       -1.63779       -0.44355
B         -2.55509       -3.27361       -0.05415
B         -1.15557       -4.11379        0.19533
B          0.30872       -3.29663       -0.35758
B         -1.08245       -0.75963       -0.75238
B          1.79205       -0.81322       -0.83362
B          1.69159       -4.08955        0.33761
B         -4.00106       -0.75133       -0.37696
B          1.69892       -2.41362       -0.26400
B         -3.95597       -2.44113        0.08952
B          0.26116       -4.74064        0.47885
B          3.13038       -3.25427        0.34917
B          3.17094       -1.63635       -0.22646
B          4.63661       -0.83275        0.26761
B          0.37892        1.75427       -0.91661
B          1.76631        2.44155       -0.29247
B          3.21619        1.62422       -0.24558
B          4.65908        0.78610        0.25812
B          4.51280        2.34734        0.49396
B          3.22065        3.24928        0.31103
B          1.80559        4.12398        0.28945
B          0.40114        3.36164       -0.39662
B          0.39381        4.81612        0.42281
B         -2.46217        3.42168       -0.09341
B         -1.03982        4.22556        0.14643
B         -2.50208        1.78187       -0.46360
B         -3.88558        2.63013        0.05978
B         -3.97763        0.93689       -0.38686
B         -1.06042        2.58527       -0.62900
B         -1.13077       -2.48277       -0.59928
B          3.27605       -0.10954       -0.63194
B         -1.05997        0.85978       -0.76187
B          4.44709       -2.38646        0.52172
B         -5.26963       -1.61514        0.58691
B         -5.24380        0.01443        0.34343
B         -5.22158        1.84681        0.56661
B         -6.40087        0.91181        1.17271
B         -6.42242       -0.64074        1.18181
B          1.81489        0.83262       -0.84328
B         -2.56895        0.37744        0.56928
B          0.33104       -1.69546       -0.89638
B          5.96512       -1.69516        0.73393
B          6.18384        0.01556        0.78917
B          6.01009        1.74812        0.78433
B         -1.52761       -2.01286       -0.48396
