45
isomer_0698.log	Energy: -112544.0489508
B         -2.63690        1.73720        0.42802
B         -2.62859        3.37839        0.06194
B         -1.22192        4.21066       -0.17345
B          0.23482        3.37386        0.36996
B         -1.17745        0.84287        0.72651
B          1.69724        0.87199        0.81282
B          1.62518        4.16536       -0.31178
B         -4.09544        0.86359        0.34663
B          1.61798        2.48103        0.26591
B         -4.03592        2.55942       -0.09567
B          0.20029        4.82997       -0.44589
B          3.05719        3.31868       -0.33308
B          3.08372        1.69247        0.21951
B          4.54365        0.88412       -0.28375
B          0.26326       -1.68488        0.85711
B          1.64605       -2.37444        0.22533
B          3.10258       -1.56831        0.19226
B          4.55301       -0.73484       -0.29728
B          4.39448       -2.29133       -0.55556
B          3.09479       -3.18527       -0.38743
B          1.67267       -4.04868       -0.38043
B          0.27332       -3.28482        0.31432
B          0.25555       -4.72739       -0.52575
B         -2.58988       -3.31731        0.00598
B         -1.17370       -4.12920       -0.24314
B         -2.61713       -1.68267        0.39944
B         -4.00660       -2.51214       -0.13805
B         -4.08568       -0.82474        0.33252
B         -1.18229       -2.50000        0.55554
B         -1.21159        2.56835        0.59789
B          3.17582        0.15924        0.60336
B         -1.16809       -0.77664        0.71297
B          4.36711        2.44277       -0.51599
B         -5.35542        1.75128       -0.60674
B         -5.34316        0.11825       -0.38645
B         -5.33540       -1.71088       -0.63567
B         -6.50610       -0.75783       -1.23017
B         -6.51508        0.79482       -1.21719
B          1.70676       -0.77395        0.79907
B          0.01724       -1.32390        2.08299
B          0.24332        1.76507        0.88594
B          5.87984        1.74227       -0.73575
B          6.08481        0.03079       -0.81502
B          5.89704       -1.70020       -0.83512
B          0.19864       -0.67301       -0.64661
