45
isomer_0699.log	Energy: -111019.1183803
B          2.60141       -1.57530        0.42999
B          2.61778       -3.21404        0.05335
B          1.22370       -4.06643       -0.18490
B         -0.24478       -3.25577        0.36650
B          1.12889       -0.70559        0.73685
B         -1.74484       -0.77971        0.82810
B         -1.62402       -4.06428       -0.31786
B          4.04612       -0.67873        0.35163
B         -1.64176       -2.38379        0.27068
B          4.01199       -2.37241       -0.10149
B         -0.18929       -4.70590       -0.45879
B         -3.06898       -3.23973       -0.33113
B         -3.11960       -1.61770        0.23198
B         -4.59278       -0.82881       -0.26345
B         -0.35047        1.79869        0.88633
B         -1.74493        2.47083        0.26148
B         -3.18889        1.64251        0.22581
B         -4.62718        0.78987       -0.26652
B         -4.49322        2.35024       -0.51502
B         -3.20718        3.26308       -0.34345
B         -1.79856        4.14832       -0.33341
B         -0.38627        3.40174        0.35389
B         -0.39237        4.84978       -0.47689
B          2.47550        3.48048        0.04067
B          1.04648        4.27196       -0.20069
B          2.52875        1.84396        0.42351
B          3.90422        2.69826       -0.11109
B          4.01025        1.00929        0.34844
B          1.08175        2.63799        0.58744
B          1.18944       -2.42947        0.59704
B         -3.23466       -0.08858        0.62588
B          1.09448        0.91364        0.73378
B         -4.39262       -2.38301       -0.50606
B          5.31787       -1.54069       -0.60968
B          5.28079        0.09050       -0.37884
B          5.24430        1.92086       -0.61624
B          6.42847        0.98986       -1.21896
B          6.46147       -0.56251       -1.21602
B         -1.77982        0.86594        0.82498
B          1.17318       -2.67974       -0.63259
B         -0.27716       -1.65065        0.89286
B         -5.91640       -1.70460       -0.71859
B         -6.14795        0.00398       -0.78645
B         -5.98698        1.73776       -0.79571
B          1.28386       -0.65211        1.31261
