45
isomer_0007.log	Energy: -113373.1097204
B          2.41449        1.76298       -0.63515
B          2.25696        3.45139       -0.13121
B          0.89828        4.21006        0.04564
B         -0.56988        3.45593       -0.57886
B          1.02155        1.02567       -1.18033
B         -1.84158        0.79808       -0.98426
B         -1.88858        4.07127        0.35008
B          3.82840        1.05295       -0.25512
B         -1.93636        2.48415       -0.52852
B          3.60887        2.63121        0.18103
B         -0.52859        4.71530        0.42971
B         -3.19882        3.11054        0.39381
B         -3.24722        1.58395       -0.19680
B         -4.52998        0.56629        0.33277
B         -0.18120       -1.70299       -1.14615
B         -1.56812       -2.53232       -0.55402
B         -3.01859       -1.83015       -0.25783
B         -4.50167       -1.08861        0.14507
B         -4.18109       -2.67746        0.74736
B         -2.75478       -3.35933        0.30069
B         -1.34893       -4.09902        0.24438
B         -0.00921       -3.22931       -0.56238
B          0.08259       -4.62747        0.27806
B          2.72841       -3.10907       -0.18906
B          1.40542       -3.99049        0.02774
B          2.71053       -1.41241       -1.04642
B          4.20951       -2.56783        0.17912
B          3.98419       -0.63584       -0.33470
B          1.36596       -2.25301       -0.81769
B          0.98970        2.72503       -0.83136
B         -3.29439       -0.16069       -0.54074
B          1.28152       -0.52413       -1.19685
B         -4.49624        2.20074        0.83469
B          4.80442        1.91713        0.92818
B          5.04089        0.26639        0.62333
B          4.96551       -1.46840        0.92818
B          5.78014       -0.44550        1.86664
B          5.75113        1.03442        1.83448
B         -1.71501       -0.82980       -0.98349
B          2.98881       -1.60618        0.53042
B         -0.51359        1.93412       -1.22775
B         -5.54296        1.22476        1.37158
B         -5.61995       -0.32281        1.35599
B         -5.28724       -1.84979        1.33188
B         -0.34329        0.10027       -1.08216
