45
isomer_0070.log	Energy: -113592.0270783
B          1.93888        1.90815       -0.16412
B          1.92222        3.51777        0.31084
B          0.49567        4.27486        0.42894
B         -0.77720        3.72343       -0.58046
B          2.10673        0.32115       -0.74055
B         -1.54623        1.05700       -0.98460
B         -2.27318        4.08352        0.24920
B          3.48390        1.21182       -0.10191
B         -2.12954        2.67940       -0.75901
B          3.29846        2.75986        0.52661
B         -0.94063        4.76860        0.59836
B         -3.49197        3.05391        0.06663
B         -3.09459        1.40785       -0.17867
B         -4.22717        0.14389        0.19834
B         -0.33411       -1.92578       -1.08781
B         -0.66457       -2.89055        0.57939
B         -1.74239       -1.69361       -0.08021
B         -3.42978       -1.49072        0.33528
B         -3.85654       -2.74216        1.27788
B         -2.49245       -3.08507        0.57547
B         -1.55320       -4.24759        0.01055
B         -0.12416       -3.56040       -1.01817
B         -0.16605       -4.71082        0.15968
B          2.53921       -3.13842       -0.13637
B          1.29923       -4.05814       -0.08443
B          2.29786       -1.47618       -0.54194
B          3.79878       -2.11110        0.07118
B          3.67001       -0.50878       -0.33610
B          1.26728       -2.65613       -1.31045
B          0.70176        2.85772       -0.62230
B         -2.57353       -0.13989       -0.24534
B          0.78945       -0.73604       -0.47702
B         -4.64221        1.98886        0.23639
B          4.67533        2.04569        0.85450
B          4.88141        0.42611        0.36738
B          5.06188       -1.27361        0.45444
B          6.13793       -0.28449        1.06886
B          5.96238        1.19241        1.25551
B         -0.83311       -0.38401       -0.75453
B          0.89883       -2.32850        0.40360
B         -0.59578        2.25251       -1.41758
B         -5.68399        0.93050        0.45635
B         -5.68135       -0.44847        0.84068
B         -4.88430       -1.72927        1.12932
B          0.51084        1.01470       -0.83379
