45
isomer_0701.log	Energy: -113455.0349245
B          2.24589       -1.14922        0.46955
B          2.23838       -2.66864       -0.76851
B          0.90576       -3.39206       -1.17569
B         -0.48139       -3.32647       -0.06315
B          0.88101       -1.15248        1.40721
B         -1.83727       -0.89446        1.26154
B         -1.92054       -3.58715       -1.03980
B          3.87998       -0.65895        0.38953
B         -1.91888       -2.46337        0.27469
B          3.58652       -2.06104       -0.38678
B         -0.52084       -3.86874       -1.55430
B         -3.29827       -2.94546       -0.51050
B         -3.23673       -1.51532        0.31241
B         -4.54009       -0.49458       -0.05907
B         -0.07283        1.48490        0.63057
B         -1.47457        2.41735        0.17136
B         -2.98898        1.87929        0.45634
B         -4.54408        1.16085        0.26746
B         -4.23346        2.74550       -0.40767
B         -2.75206        3.35658       -0.30630
B         -1.24809        3.93915       -0.60098
B          0.11298        3.03838        0.04410
B          0.19086        4.22091       -0.99823
B          2.83135        2.61377       -0.66288
B          1.54953        3.45438       -0.79372
B          2.86198        0.91322        0.34878
B          4.15845        2.02625       -0.31527
B          4.42357        0.93479        0.81912
B          1.46682        1.87646       -0.07522
B          0.98967       -2.37531        0.16505
B         -3.21876        0.15685        0.77757
B          1.31233        0.36951        0.61435
B         -4.69130       -2.09301       -0.56999
B          5.09162       -1.63412       -0.43075
B          5.53828       -0.16142        0.30832
B          5.70822        1.45352       -0.14142
B          6.75248        0.48554       -0.66326
B          6.40922       -0.93847       -0.84229
B         -1.65035        0.81689        0.77116
B         -0.61182       -1.16242        2.36208
B         -0.47565       -2.23474        1.18078
B         -5.82558       -1.11879       -0.77328
B         -5.85072        0.45137       -0.71090
B         -5.48286        1.95080       -0.75473
B         -0.25975        0.14995        1.57271
