45
isomer_0703.log	Energy: -113525.5299645
B          2.35708       -1.59974        0.54605
B          1.94987       -3.16828       -0.24287
B          1.12793       -4.22892        0.63387
B         -0.32941       -3.38821        1.42214
B          1.24786       -0.76627        1.32741
B         -1.63389       -0.73978        0.89996
B         -1.49812       -4.06703        0.03866
B          3.57548       -0.82872       -0.14173
B         -1.31618       -2.33116        0.05498
B          3.25402       -2.33653       -0.69427
B         -0.28570       -4.81266        0.48055
B         -2.75411       -3.14473       -0.44760
B         -2.87086       -1.61316        0.01966
B         -4.15633       -0.65410       -0.62920
B         -0.21707        1.85051        1.20818
B         -1.59383        2.62778        0.58506
B         -2.97204        1.83430        0.17493
B         -4.37338        0.94594       -0.20817
B         -4.13263        2.63520       -0.76175
B         -2.86764        3.46034       -0.19087
B         -1.48643        4.26915       -0.07881
B         -0.13656        3.45227        0.69494
B         -0.06820        4.82611       -0.10668
B          2.64592        3.37641        0.21235
B          1.32965        4.18824        0.17127
B          2.63042        1.61633        0.79120
B          3.82623        2.48518       -0.13193
B          3.87288        0.86143        0.13206
B          1.32456        2.57325        0.94331
B          1.17060       -2.53905        1.22735
B         -3.09884        0.08540        0.47021
B          1.29310        0.90612        1.36078
B         -4.00389       -2.32100       -1.08215
B          4.51124       -1.60276       -1.38325
B          4.91845       -0.06592       -0.73480
B          4.97795        1.60583       -0.92801
B          5.75013        0.73461       -1.92293
B          5.49924       -0.71383       -2.14650
B         -1.57801        0.94974        0.77768
B         -0.19371        0.04647        1.28081
B         -0.34181       -1.71556        1.37012
B         -5.08632       -1.40539       -1.66059
B         -5.30070        0.14255       -1.58526
B         -5.09737        1.67391       -1.44106
B          0.13044       -3.10431       -0.30509
