45
isomer_0704.log	Energy: -113441.9668264
B         -2.47434       -1.74080       -0.39494
B         -2.66100       -3.19366        0.79639
B         -1.38323       -4.10314        0.81211
B         -0.07523       -3.24201       -0.39286
B         -1.28463       -0.63282       -1.02407
B          1.68438       -0.78831       -1.00810
B          1.38173       -3.97900        0.24493
B         -3.68588       -0.64595        0.00403
B          1.55359       -2.48780       -0.56685
B         -3.73854       -2.13588        0.65048
B          0.05158       -4.49943        0.66378
B          2.83022       -3.27136        0.16996
B          3.02563       -1.74296       -0.31748
B          4.41210       -0.90665        0.21426
B          0.39896        1.88191       -0.97236
B          1.84762        2.55097       -0.46064
B          3.21463        1.67957       -0.16748
B          4.64435        0.72848       -0.04504
B          4.49750        2.36354        0.68996
B          3.19316        3.24740        0.34857
B          1.83321        4.13194        0.42147
B          0.44060        3.42684       -0.33766
B          0.45380        4.75188        0.56249
B         -2.37440        3.45119        0.11137
B         -0.98049        4.21663        0.28032
B         -2.45171        1.82326       -0.46857
B         -3.79834        2.69081        0.15821
B         -3.73044        1.01785        0.01201
B         -1.08880        2.68595       -0.57196
B         -1.81911       -3.42114       -0.59118
B          3.25616       -0.02790       -0.65453
B         -1.14793        0.95905       -1.03511
B          4.26606       -2.56283        0.59840
B         -5.16486       -1.31667        0.68308
B         -5.17694        0.23728        0.08123
B         -5.12836        1.93475        0.51087
B         -6.24484        1.00903        1.06520
B         -6.36967       -0.47258        1.00288
B          1.77553        0.86163       -0.72630
B         -1.16911       -2.28486       -1.41990
B          0.27806       -1.65379       -1.30489
B          5.44631       -1.75419        1.08636
B          5.69474       -0.21090        1.10829
B          5.51822        1.32975        1.14906
B          0.24971        0.09490       -0.96583
