45
isomer_0706.log	Energy: -113248.2169984
B         -2.55441        1.78693        0.30667
B         -2.53532        3.47854       -0.04894
B         -1.09915        4.17673       -0.09072
B          0.31066        3.35261        0.44074
B         -1.25445        0.90164        0.55515
B          1.70466        0.79176        0.80325
B          1.75453        4.14228       -0.17319
B         -3.91881        0.94495        0.14633
B          1.71711        2.46812        0.36040
B         -3.86374        2.61470       -0.26159
B          0.34887        4.74031       -0.34699
B          3.11535        3.26465       -0.21820
B          3.12422        1.66561        0.22720
B          4.50906        0.82454       -0.23975
B          0.34445       -1.70162        1.04069
B          1.67172       -2.53606        0.19159
B          3.07329       -1.71254        0.06797
B          4.43052       -0.88175       -0.34991
B          4.39012       -2.51467       -0.82314
B          2.97452       -3.29198       -0.51823
B          1.54162       -4.11480       -0.44398
B          0.20078       -3.33446        0.35697
B          0.10650       -4.70108       -0.50203
B         -2.69579       -3.31794        0.01844
B         -1.25250       -4.04801       -0.15268
B         -2.61492       -1.62685        0.49982
B         -3.93959       -2.45741       -0.14304
B         -3.95578       -0.79674        0.18495
B         -1.24230       -2.51054        0.64852
B         -1.14341        2.56308        0.53625
B          3.16752       -0.04012        0.48903
B         -1.36134       -0.73893        0.77501
B          4.50927        2.49408       -0.56056
B         -5.15565        1.75724       -0.79915
B         -5.13291        0.10254       -0.51549
B         -5.19630       -1.52036       -0.74380
B         -6.20735       -0.63780       -1.49402
B         -6.18739        0.88083       -1.50271
B          1.72515       -0.88639        0.80065
B         -0.79721       -1.32955        2.12498
B          0.34025        1.61098        0.83411
B          5.70464        1.57521       -0.95295
B          5.81449        0.02758       -1.01196
B          5.61147       -1.57630       -1.11941
B         -0.08245        0.11097        1.60370
