45
isomer_0707.log	Energy: -111858.4425135
B         -2.54924        1.88159        0.43554
B         -2.49689        3.52668        0.09124
B         -1.06811        4.32547       -0.12629
B          0.36382        3.44440        0.41308
B         -1.11481        0.94616        0.72926
B          1.75919        0.90012        0.82991
B          1.77757        4.20870       -0.25138
B         -4.02929        1.04696        0.33552
B          1.72412        2.51770        0.30394
B         -3.92395        2.74635       -0.08402
B          0.37094        4.91147       -0.38360
B          3.18745        3.32579       -0.27692
B          3.16935        1.69233        0.25424
B          4.61063        0.85332       -0.25257
B          0.25982       -1.61934        0.83342
B          1.62771       -2.33595        0.19930
B          3.10461       -1.56722        0.18397
B          4.57848       -0.76502       -0.28746
B          4.38139       -2.31340       -0.56706
B          3.05831       -3.17570       -0.41709
B          1.61448       -4.00224       -0.42840
B          0.23161       -3.21177        0.26958
B          0.18117       -4.64227       -0.58958
B         -2.62984       -3.16649       -0.05306
B         -1.23370       -4.01124       -0.30602
B         -2.61714       -1.53698        0.36183
B         -4.02465       -2.32330       -0.19332
B         -4.06281       -0.64073        0.29913
B         -1.20460       -2.39296        0.51408
B         -1.10396        2.67347        0.62331
B          3.22006        0.15234        0.61823
B         -1.14697       -0.67274        0.69436
B          4.47539        2.41891       -0.46504
B         -5.26109        1.97920       -0.61213
B         -5.29191        0.34366       -0.41340
B         -5.32983       -1.48165       -0.68675
B         -6.47257       -0.49107       -1.27427
B         -6.44175        1.06099       -1.24080
B          1.72651       -0.74520        0.79444
B         -1.76098       -3.59250        1.50329
B          0.32832        1.82930        0.90777
B          5.97075        1.68263       -0.68669
B          6.13211       -0.03237       -0.78759
B          5.90006       -1.75754       -0.83149
B          0.01025       -1.98987        0.01950
