45
isomer_0708.log	Energy: -113425.9957077
B          2.58497       -1.70839        0.29835
B          2.45646       -3.33946       -0.23530
B          1.05968       -4.15189       -0.28507
B         -0.36425       -3.28519        0.14738
B          1.18233       -0.78078        0.67005
B         -1.69026       -0.71151        1.09481
B         -1.78025       -4.16164       -0.10318
B          3.94884       -0.93005        0.07546
B         -1.77244       -2.45780        0.53191
B          3.90346       -2.52611       -0.34590
B         -0.38897       -4.79111       -0.31357
B         -3.13106       -3.22388       -0.03849
B         -3.16416       -1.65677        0.44278
B         -4.45905       -0.72202       -0.17244
B         -0.29080        1.76894        0.95736
B         -1.60762        2.56666        0.24518
B         -3.00142        1.74201       -0.08411
B         -4.51044        0.94496        0.02709
B         -4.32752        2.54759       -0.74399
B         -2.94156        3.34045       -0.45036
B         -1.51163        4.14905       -0.43522
B         -0.22060        3.42519        0.52334
B         -0.08379        4.63671       -0.52500
B          2.63170        3.19754        0.05178
B          1.30177        4.06075       -0.11691
B          2.65905        1.57889        0.66815
B          3.96664        2.27880       -0.11815
B          3.99873        0.71913        0.39229
B          1.26787        2.53737        0.60978
B          1.17183       -2.54312        0.33688
B         -3.12987        0.08496        0.51616
B          1.16009        0.79393        0.94873
B         -4.52877       -2.41529       -0.38725
B          5.19996       -1.71691       -0.81502
B          5.37547       -0.11589       -0.15769
B          5.38327        1.56792       -0.35004
B          6.52831        0.71839       -0.95540
B          6.33613       -0.72807       -1.29602
B         -1.51477        0.79899        0.10849
B         -0.32783        0.13338        1.58275
B         -0.30287       -1.67653        0.65854
B         -5.65704       -1.50855       -0.83542
B         -5.76126        0.06702       -0.92751
B         -5.47240        1.59737       -1.05495
B         -0.17593       -0.10502       -0.14028
