45
isomer_0709.log	Energy: -113521.7456965
B         -2.39605       -1.58092       -0.57229
B         -2.00865       -3.17196        0.19096
B         -1.15657       -4.21175       -0.68755
B          0.34384       -3.36065       -1.40207
B         -1.27244       -0.73695       -1.34800
B          1.54161       -0.72110       -0.68052
B          1.46502       -4.07455       -0.03368
B         -3.64458       -0.85569        0.10598
B          1.27704       -2.34534       -0.00087
B         -3.31634       -2.35596        0.64197
B          0.24082       -4.80228       -0.48239
B          2.75475       -3.18679        0.39937
B          2.84799       -1.62123        0.03953
B          4.31977       -0.74301        0.31263
B          0.26080        1.87936       -1.34114
B          1.59348        2.62050       -0.53281
B          2.95803        1.82510       -0.16024
B          4.17127        0.89712        0.57479
B          4.12255        2.58504        0.90475
B          2.84782        3.42300        0.26740
B          1.50229        4.26483        0.07751
B          0.17399        3.47072       -0.79855
B          0.09118        4.83800        0.04235
B         -2.59858        3.38359       -0.28562
B         -1.28696        4.20813       -0.26189
B         -2.57209        1.65880       -0.71149
B         -3.80040        2.49681        0.12530
B         -3.83027        0.87819       -0.07226
B         -1.28518        2.61252       -1.08757
B         -1.20377       -2.52084       -1.24668
B          3.09372        0.08690       -0.45398
B         -1.26591        0.91558       -1.33183
B          4.02876       -2.38417        0.96010
B         -4.55626       -1.60956        1.37193
B         -4.87590       -0.02608        0.81214
B         -4.90922        1.64133        1.00689
B         -5.67040        0.76544        2.01648
B         -5.49038       -0.70527        2.18920
B          1.65457        0.95379       -0.95452
B          0.21388        0.06964       -1.22806
B          0.28089       -1.69911       -1.31778
B          5.07085       -1.43198        1.53938
B          5.31068        0.10401        1.56951
B          5.16157        1.67626        1.53682
B         -0.18720       -3.10949        0.30681
