45
isomer_0071.log	Energy: -113434.6967502
B         -2.60264        1.63276        0.67787
B         -2.51824        3.23912        0.05887
B         -1.16539        4.11686       -0.04566
B          0.30926        3.37655        0.49134
B         -1.12992        0.83983        1.03753
B          1.56659        0.74791        0.09567
B          1.64092        4.14469       -0.34796
B         -4.01899        0.80049        0.41866
B          1.70046        2.50467        0.27308
B         -3.87693        2.36367       -0.14717
B          0.22773        4.72043       -0.36752
B          3.05070        3.30147       -0.37409
B          3.07174        1.69165       -0.06225
B          4.54028        0.82446       -0.01318
B          0.25446       -1.63975        0.63422
B          1.68513       -2.49262        0.51872
B          3.12076       -1.75528        0.40378
B          4.40463       -0.83375       -0.26125
B          4.42480       -2.53142       -0.45884
B          3.00829       -3.29931       -0.11754
B          1.62251       -4.18603       -0.11885
B          0.24094       -3.26535        0.20598
B          0.20722       -4.77005       -0.27078
B         -2.59537       -3.26085       -0.08362
B         -1.21625       -4.10069       -0.18080
B         -2.66926       -1.57910        0.36049
B         -3.99462       -2.41625       -0.25667
B         -4.10220       -0.87431        0.41126
B         -1.27550       -2.45329        0.33198
B         -1.21099        2.55800        0.68120
B          3.13202        0.00743        0.47217
B         -1.21062       -0.69415        0.59711
B          4.42314        2.46907       -0.71042
B         -5.14953        1.65688       -0.68120
B         -5.31231        0.00596       -0.33757
B         -5.28937       -1.67107       -0.69164
B         -6.39281       -0.71817       -1.29558
B         -6.30091        0.76849       -1.33502
B          1.69267       -0.75587        1.08457
B          0.32663        0.07733        1.58211
B          0.35507        1.73371        0.93680
B          5.51430        1.48176       -1.07537
B          5.74380       -0.07714       -0.98093
B          5.58931       -1.64474       -0.90581
B          0.17845       -0.04397       -0.15370
