45
isomer_0710.log	Energy: -111749.9065907
B          2.61414        1.70206       -0.48118
B          2.60555        3.33690       -0.08773
B          1.19879        4.16444        0.16331
B         -0.25826        3.33614       -0.39216
B          1.15473        0.81214       -0.79272
B         -1.72009        0.84131       -0.87490
B         -1.64811        4.11547        0.30447
B          4.07318        0.82791       -0.41624
B         -1.64087        2.44103       -0.30129
B          4.01345        2.51609        0.05439
B         -0.22335        4.77843        0.44785
B         -3.07970        3.26787        0.31343
B         -3.10619        1.65110       -0.26621
B         -4.56510        0.83375        0.22533
B         -0.28499       -1.71377       -0.96371
B         -1.66666       -2.41446       -0.34179
B         -3.12351       -1.60969       -0.29341
B         -4.57370       -0.78521        0.21183
B         -4.41413       -2.34572        0.44386
B         -3.11424       -3.23610        0.25918
B         -1.69174       -4.09859        0.23595
B         -0.29362       -3.32256       -0.44771
B         -0.27412       -4.77895        0.36813
B          2.56998       -3.35882       -0.14359
B          1.15450       -4.17544        0.09374
B          2.59598       -1.71782       -0.50971
B          3.98652       -2.55549        0.01209
B          4.06421       -0.86042       -0.43033
B          1.16132       -2.53312       -0.67763
B          1.18824        2.53524       -0.63535
B         -3.19807        0.12445       -0.67550
B          1.14613       -0.80737       -0.80623
B         -4.38898        2.38839        0.48335
B          5.33397        1.70015        0.55022
B          5.32218        0.07103        0.30270
B          5.31558       -1.76201        0.52134
B          6.48660       -0.81846        1.13019
B          6.49485        0.73419        1.14314
B         -1.72883       -0.80463       -0.88863
B          0.29286       -0.74577        2.18510
B         -0.26667        1.73619       -0.93493
B         -5.90111        1.68359        0.69329
B         -6.10519       -0.02908        0.74422
B         -5.91660       -1.76006        0.73516
B          0.41106        0.63566       -0.26130
