45
isomer_0711.log	Energy: -113323.0834306
B          2.64370       -1.50741        0.50875
B          2.68502       -3.14232        0.14651
B          1.33486       -4.03187        0.48434
B         -0.33328       -3.58850        0.84768
B          1.30733       -0.71306        1.06139
B         -1.62373       -0.88365        0.87028
B         -1.22349       -4.06278       -0.54368
B          3.87547       -0.56418       -0.01247
B         -1.46072       -2.47269        0.21616
B          3.83659       -2.23343       -0.33999
B          0.14955       -4.64970       -0.31635
B         -2.57598       -3.19889       -0.78163
B         -2.85358       -1.72303       -0.11999
B         -4.25082       -0.86638       -0.60393
B         -0.35813        1.75942        1.17883
B         -1.81723        2.47746        0.69831
B         -3.16463        1.62970        0.27651
B         -4.53007        0.72523       -0.15422
B         -4.39712        2.42574       -0.61589
B         -3.12474        3.25961       -0.04932
B         -1.81010        4.14895        0.05542
B         -0.39221        3.38324        0.76962
B         -0.43282        4.80419        0.02006
B          2.39462        3.45551        0.22200
B          0.97698        4.24734        0.21174
B          2.52285        1.80008        0.61015
B          3.69054        2.69572       -0.27018
B          3.93491        1.07426        0.11783
B          1.12385        2.59035        0.83263
B          1.55137       -2.45699        1.29844
B         -3.19301       -0.09006        0.48100
B          1.20071        0.86357        1.09218
B         -3.93576       -2.39421       -1.29993
B          4.86768       -1.30885       -1.26407
B          4.46637        0.33433       -1.25915
B          4.87577        1.99291       -1.04904
B          5.77203        1.11601       -1.91424
B          5.69683       -0.39466       -2.10287
B         -1.71345        0.76866        0.85342
B          0.54337       -3.26437        2.07565
B         -0.19966       -1.84308        1.33028
B         -5.08963       -1.54004       -1.78429
B         -5.43236       -0.04285       -1.55719
B         -5.33613        1.48130       -1.32757
B         -0.20174       -0.06059        1.10682
