45
isomer_0713.log	Energy: -113377.9798007
B         -2.47946        1.73687        0.57925
B         -2.46053        3.44815       -0.02456
B         -1.10246        4.20906       -0.21056
B          0.35278        3.45506        0.39826
B         -1.14524        1.01508        1.08403
B          1.69576        0.86213        0.78741
B          1.72425        4.18197       -0.39638
B         -3.82214        0.96742        0.20138
B          1.76832        2.57703        0.45707
B         -3.74247        2.58141       -0.17562
B          0.33163        4.76448       -0.52384
B          3.07489        3.29534       -0.35579
B          3.12589        1.71440        0.18913
B          4.52252        0.79570       -0.12429
B          0.15036       -1.83995        1.15000
B          1.63162       -2.52259        0.62264
B          3.03809       -1.70419        0.32282
B          4.45923       -0.85141       -0.08078
B          4.29305       -2.49388       -0.61777
B          2.93876       -3.25877       -0.17108
B          1.58480       -4.07838       -0.36426
B          0.18526       -3.31569        0.19212
B          0.24059       -4.62910       -0.72686
B         -2.54944       -3.26516       -0.55947
B         -1.21175       -4.05468       -0.65666
B         -2.59219       -1.73979        0.71402
B         -3.73861       -2.32681       -0.47436
B         -3.82324       -0.81542        0.16792
B         -1.39575       -2.93227        0.57265
B         -1.12973        2.67396        0.63384
B          3.21298       -0.00044        0.62143
B         -1.36757       -0.56929        1.26575
B          4.36765        2.42679       -0.77655
B         -5.04343        1.77692       -0.70092
B         -5.06995        0.12071       -0.38512
B         -5.06061       -1.47780       -0.86445
B         -6.09744       -0.55707       -1.50676
B         -6.07834        0.91721       -1.43707
B          1.59694       -0.80428        0.90869
B         -1.40130       -1.99566        1.84925
B          0.36332        1.91220        1.03652
B          5.42720        1.45604       -1.27435
B          5.60592       -0.07841       -1.20931
B          5.39217       -1.62166       -1.15361
B          0.22768        0.04481        1.01625
