45
isomer_0715.log	Energy: -113478.6324645
B         -2.53027        1.65146        0.57362
B         -2.49673        3.31210       -0.04959
B         -1.12402        4.09460       -0.26985
B          0.31193        3.38681        0.35794
B         -1.16197        0.90152        1.02596
B          1.77729        0.90009        0.93896
B          1.69218        4.14677       -0.41686
B         -3.94618        0.92221        0.29533
B          1.75402        2.55696        0.43469
B         -3.83943        2.50185       -0.10176
B          0.28493        4.69277       -0.57103
B          3.06475        3.29656       -0.36129
B          3.14913        1.75676        0.21960
B          4.49470        0.79754       -0.21901
B          0.18310       -1.58811        0.38764
B          1.66263       -2.46974        0.36207
B          3.11893       -1.69660        0.39863
B          4.58264       -0.83859        0.16580
B          4.39591       -2.46063       -0.43805
B          3.03103       -3.30504       -0.05825
B          1.65749       -4.12692       -0.12488
B          0.14328       -3.31318        0.57525
B          0.30667       -4.54341       -0.53977
B         -2.48015       -3.12613       -0.42355
B         -1.11668       -3.88416       -0.48388
B         -2.57015       -1.70349        0.61611
B         -3.83838       -2.30720       -0.38502
B         -3.94326       -0.81792        0.26227
B         -1.31519       -2.73457        1.06193
B         -1.17196        2.60320        0.65026
B          3.25712        0.05930        0.66971
B         -1.27642       -0.73594        0.74984
B          4.42024        2.45917       -0.73274
B         -5.22599        1.72174       -0.50739
B         -5.28976        0.07117       -0.10175
B         -5.21980       -1.52406       -0.65321
B         -6.31740       -0.60653       -1.22298
B         -6.31757        0.86910       -1.14520
B          1.67120       -0.74991        0.71070
B         -1.11732       -2.05648       -0.55213
B          0.34447        1.86402        1.04555
B          5.56161        1.52619       -1.13971
B          5.73189       -0.01944       -1.05511
B          5.45363       -1.53945       -0.99823
B          0.24787        0.05564        1.04940
