45
isomer_0716.log	Energy: -110695.4733505
B          2.64164       -1.64337        0.33087
B          2.61938       -3.27070       -0.09211
B          1.20581       -4.08148       -0.35904
B         -0.24456       -3.25090        0.21033
B          1.18964       -0.74676        0.65746
B         -1.68539       -0.75276        0.73714
B         -1.64045       -4.00555       -0.50123
B          4.10817       -0.78073        0.28275
B         -1.61939       -2.34247        0.13472
B          4.03438       -2.45955       -0.21840
B         -0.22130       -4.67800       -0.65562
B         -3.06472       -3.14568       -0.49584
B         -3.07786       -1.53949        0.11295
B         -4.52931       -0.70091       -0.36471
B         -0.22855        1.78790        0.87315
B         -1.60365        2.51154        0.26306
B         -3.06729        1.72030        0.19914
B         -4.52406        0.91756       -0.32192
B         -4.35094        2.48058       -0.52557
B         -3.04364        3.35630       -0.32392
B         -1.61382        4.20600       -0.28412
B         -0.22298        3.40577        0.38634
B         -0.19032        4.87646       -0.40300
B          2.64109        3.42297        0.08487
B          1.23284        4.25586       -0.13860
B          2.65273        1.77546        0.42126
B          4.05082        2.61048       -0.08435
B          4.11364        0.90708        0.32738
B          1.22496        2.59986        0.60292
B          1.20853       -2.46695        0.46896
B         -3.15702       -0.01977        0.54974
B          1.19489        0.87226        0.70027
B         -4.36629       -2.25208       -0.65070
B          5.36225       -1.64613       -0.69848
B          5.36420       -0.02172       -0.42153
B          5.37347        1.81498       -0.60697
B          6.53688        0.87258       -1.23199
B          6.53185       -0.67959       -1.27303
B         -1.68005        0.89268        0.78064
B         -0.20556       -1.83287        3.00564
B         -0.23973       -1.66100        0.78196
B         -5.87215       -1.53066       -0.84888
B         -6.06152        0.18434       -0.86896
B         -5.85813        1.91319       -0.82845
B         -0.91851       -1.87503        0.28587
