45
isomer_0717.log	Energy: -112661.0487232
B          2.62472       -1.64541        0.36531
B          2.61915       -3.27620       -0.04468
B          1.21381       -4.10460       -0.30077
B         -0.24391       -3.28554        0.26654
B          1.16390       -0.76228        0.68933
B         -1.71063       -0.79933        0.77803
B         -1.63353       -4.06117       -0.43467
B          4.08147       -0.76707        0.30579
B         -1.62891       -2.39295        0.18803
B          4.02471       -2.45054       -0.18181
B         -0.20752       -4.71915       -0.58815
B         -3.06719       -3.21703       -0.43163
B         -3.09622       -1.60629        0.16445
B         -4.55828       -0.78758       -0.31531
B         -0.28153        1.75823        0.88936
B         -1.66638        2.46180        0.27786
B         -3.12139        1.65400        0.22477
B         -4.57078        0.83113       -0.28536
B         -4.41555        2.39430       -0.50193
B         -3.11739        3.28595       -0.31131
B         -1.69693        4.15164       -0.28270
B         -0.29530        3.37215        0.38973
B         -0.28129        4.83678       -0.41133
B          2.56747        3.41850        0.07919
B          1.14944        4.23402       -0.14647
B          2.59832        1.77395        0.42858
B          3.98557        2.62027       -0.08799
B          4.06844        0.92100        0.33702
B          1.16209        2.58399        0.60817
B          1.20121       -2.48361        0.51440
B         -3.19083       -0.08410        0.58943
B          1.15140        0.85699        0.71929
B         -4.37901       -2.33908       -0.58951
B          5.34205       -1.62638       -0.67247
B          5.32690        0.00011       -0.40841
B          5.31533        1.83526       -0.60842
B          6.48717        0.90080       -1.22959
B          6.49916       -0.65161       -1.25831
B         -1.72333        0.84637        0.80848
B          0.30663       -2.03149        2.08975
B         -0.25490       -1.69120        0.82553
B         -5.89334       -1.63590       -0.78870
B         -6.10170        0.07669       -0.82176
B         -5.91729        1.80795       -0.79559
B          0.16419       -0.20336       -0.04215
