45
isomer_0719.log	Energy: -113420.1729651
B         -2.55148       -1.59158       -0.76482
B         -2.42879       -3.32651       -0.00566
B         -1.09759       -4.06364        0.12650
B          0.35684       -3.40082       -0.50056
B         -1.13342       -0.91478       -1.36974
B          1.70253       -0.83409       -0.89365
B          1.74467       -4.08941        0.34781
B         -3.84374       -0.88436       -0.26792
B          1.77706       -2.51518       -0.37562
B         -3.69033       -2.50217        0.21195
B          0.33702       -4.62920        0.47703
B          3.10552       -3.21217        0.34316
B          3.14717       -1.65598       -0.19086
B          4.45319       -0.73026        0.30388
B          0.20760        1.79443       -1.13250
B          1.61567        2.53144       -0.34421
B          3.03372        1.74214       -0.20501
B          4.38621        0.91057        0.27427
B          4.35619        2.57164        0.67455
B          2.90906        3.29568        0.33379
B          1.51707        4.12806        0.32646
B          0.16379        3.36883       -0.45176
B          0.10226        4.68447        0.41971
B         -2.63855        3.28670       -0.03813
B         -1.28757        4.07213        0.10117
B         -2.62220        1.60387       -0.62486
B         -3.91890        2.42126        0.13818
B         -3.94198        0.81486       -0.27907
B         -1.29199        2.52578       -0.77570
B         -1.14891       -2.56301       -0.81239
B          3.21826        0.03094       -0.55441
B         -1.33273        0.79270       -1.13509
B          4.49784       -2.41088        0.69664
B         -4.93362       -1.72451        0.85916
B         -5.00236       -0.09061        0.56599
B         -5.13517        1.53984        0.77782
B         -6.01138        0.62514        1.63507
B         -5.91373       -0.88264        1.67413
B          1.65534        0.86815       -0.88367
B         -1.79338       -0.06239        0.07460
B          0.41440       -1.84393       -1.20472
B          5.61141       -1.43682        1.07883
B          5.73496        0.12010        1.07038
B          5.50157        1.66514        1.06384
B          0.16845       -0.02891       -0.76456
