45
isomer_0072.log	Energy: -113438.1446204
B          2.45338       -1.61937        0.45740
B          2.32993       -3.28471       -0.17872
B          1.20061       -4.44119        0.12556
B         -0.39412       -3.04092        0.03550
B          2.59150        0.11983        0.98068
B         -1.79317       -0.66399        0.88715
B         -1.76979       -4.02071       -0.03760
B          3.91808       -0.84914        0.36680
B         -1.80187       -2.33520        0.62211
B          3.74984       -2.42149       -0.24152
B         -0.29905       -4.66568       -0.16918
B         -3.12528       -3.20885        0.05774
B         -3.27539       -1.59944        0.50091
B         -4.68545       -0.74866        0.19540
B         -0.36440        1.79108        0.99222
B         -1.73894        2.55458        0.40333
B         -3.19845        1.81594        0.24799
B         -4.57313        0.88349       -0.18408
B         -4.39105        2.48546       -0.81056
B         -3.03602        3.28523       -0.45201
B         -1.65183        4.11344       -0.48739
B         -0.30393        3.40856        0.33314
B         -0.24186        4.68406       -0.61869
B          2.56590        3.37580        0.04068
B          1.15784        4.13023       -0.23797
B          2.57593        1.80145        0.64321
B          3.92959        2.56944       -0.10357
B          3.99883        0.91666        0.46362
B          1.15974        2.61616        0.61690
B          1.00421       -2.06701       -0.15944
B         -3.32420        0.14351        0.72430
B          1.10969        0.95546        1.00113
B         -4.51153       -2.40162       -0.32643
B          5.08393       -1.65828       -0.66475
B          5.20667        0.02554       -0.28721
B          5.19951        1.73541       -0.52165
B          6.27261        0.77981       -1.20497
B          6.20499       -0.73196       -1.27721
B         -1.78798        0.96443        0.98257
B          0.79906       -3.44908       -1.02279
B         -0.38759       -1.40322        0.70510
B         -5.56240       -1.48883       -0.92789
B         -5.78233        0.04491       -1.06232
B         -5.56898        1.56470       -1.21131
B          1.05688       -0.66581        0.80381
