45
isomer_0720.log	Energy: -113441.8249992
B         -2.47296        1.80318        0.50248
B         -2.40614        3.43303       -0.09050
B         -1.01797        4.19887       -0.28587
B          0.41441        3.41964        0.31817
B         -1.15253        0.95268        1.04899
B          1.77162        0.87165        0.73377
B          1.79805        4.13161       -0.44920
B         -3.76052        1.00200        0.04463
B          1.82783        2.55577        0.43907
B         -3.82727        2.67106       -0.11397
B          0.41274        4.74043       -0.58619
B          3.16671        3.25940       -0.37208
B          3.20332        1.69609        0.15973
B          4.64043        0.75553        0.04384
B          0.28874       -1.65539        1.30660
B          1.57278       -2.48081        0.57340
B          3.04111       -1.72648        0.33045
B          4.42088       -0.88243       -0.20500
B          4.28849       -2.54074       -0.58327
B          2.85637       -3.25722       -0.15676
B          1.41274       -3.97098       -0.24276
B         -0.05310       -3.24236        0.38916
B          0.08829       -4.49196       -0.67545
B         -2.62735       -3.19162       -0.81298
B         -1.34560       -4.09397       -0.82939
B         -2.46063       -1.74555        0.39376
B         -3.71063       -2.13903       -0.66865
B         -3.69191       -0.66520        0.01170
B         -1.79721       -3.42511        0.57806
B         -1.11015        2.67544        0.57905
B          3.25930       -0.00840        0.66035
B         -1.27603       -0.64113        1.02845
B          4.47891        2.38426       -0.70420
B         -5.15238        1.90901       -0.47959
B         -5.19007        0.20144       -0.08453
B         -5.14482       -1.33692       -0.71937
B         -6.35029       -0.50059       -1.05423
B         -6.24399        0.98327       -1.07722
B          1.69184       -0.77924        1.01306
B         -1.15406       -2.29516        1.41964
B          0.38713        1.88232        0.96972
B          5.51039        1.35679       -1.15382
B          5.69904       -0.18134       -1.10322
B          5.46269       -1.72635       -1.07292
B          0.25179        0.09450        0.97709
