45
isomer_0721.log	Energy: -113380.9469591
B          2.46141        1.62452       -0.49670
B          2.40559        3.28595        0.04553
B          1.05129        4.07559        0.27682
B         -0.38391        3.35778       -0.38991
B          1.07084        0.86207       -0.96336
B         -1.82001        0.83682       -0.97934
B         -1.75452        4.07623        0.42876
B          3.96645        0.90324       -0.31356
B         -1.81749        2.49751       -0.42332
B          3.75798        2.48058        0.18607
B         -0.35130        4.64465        0.58022
B         -3.10038        3.19397        0.39513
B         -3.19122        1.66370       -0.21595
B         -4.56205        0.72753        0.20431
B         -0.35144       -1.78023       -1.14974
B         -1.72497       -2.56308       -0.62087
B         -3.15633       -1.75560       -0.34998
B         -4.64309       -0.91687       -0.06861
B         -4.35172       -2.52770        0.60229
B         -2.99355       -3.28894        0.21917
B         -1.55197       -4.02637        0.40203
B         -0.22159       -3.28646       -0.44844
B         -0.14743       -4.35858        0.74408
B          2.74563       -3.28572        0.22571
B          1.28061       -3.74693        0.41156
B          2.73978       -0.98923       -0.69482
B          3.81811       -2.13908        0.25680
B          4.26238       -0.74038       -0.59566
B          1.18547       -2.37320       -0.71079
B          1.09208        2.56397       -0.65726
B         -3.32629       -0.04098       -0.68017
B          1.18317       -0.73491       -0.96844
B         -4.47703        2.35145        0.75314
B          5.03656        1.71789        0.77640
B          5.41517        0.17805        0.12585
B          5.31877       -1.47422        0.53475
B          6.32408       -0.65955        1.30277
B          6.06220        0.78041        1.49568
B         -1.78772       -0.82130       -0.95655
B          2.10199       -1.87786        0.52920
B         -0.41017        1.83943       -1.09773
B         -5.61142        1.45314        1.16412
B         -5.74668       -0.11293        1.12685
B         -5.46216       -1.62451        1.12033
B         -0.33512        0.01016       -1.12635
