45
isomer_0724.log	Energy: -113384.2490213
B         -2.73948       -2.14589       -0.46931
B         -3.84110       -3.42503       -0.62565
B         -0.98476       -4.54287       -0.53788
B          0.25085       -3.44102       -0.38703
B         -1.54828       -0.97425       -0.46111
B          1.43780       -0.82105       -0.20669
B          1.78285       -4.26936       -0.01976
B         -3.35382       -0.67692        0.09106
B          1.60631       -2.52011        0.00543
B         -4.39455       -2.13875       -0.06182
B          0.44626       -5.01967       -0.28664
B          3.05387       -3.35663        0.20293
B          3.01826       -1.68504       -0.00509
B          4.44109       -0.84354       -0.01568
B          0.06937        1.75261       -0.80911
B          1.54444        2.50594       -0.23230
B          2.95560        1.71664       -0.03607
B          4.34455        0.79947        0.32489
B          4.30267        2.49633        0.67895
B          2.96605        3.31784        0.24076
B          1.68115        4.26983       -0.09517
B          0.29154        3.45766       -0.68291
B          0.37985        5.03133       -0.35915
B         -2.43321        3.75082       -0.71413
B         -1.05665        4.54965       -0.68083
B         -2.39473        2.09378       -0.87273
B         -3.63219        2.82788       -0.06591
B         -3.16210        1.09612        0.06396
B         -1.11263        2.86939       -1.26769
B         -1.23267       -2.69587       -0.65407
B          2.99696       -0.00163       -0.37525
B         -1.49428        0.73840       -0.48910
B          4.41625       -2.48901        0.56315
B         -4.88188       -1.14891        1.01817
B         -4.23408        0.38531        1.09531
B         -4.40477        2.11152        1.05167
B         -5.27285        1.32425        2.00805
B         -5.53991       -0.12768        1.95113
B          1.48317        0.81417       -0.55827
B         -2.46599       -3.92927       -0.64304
B          0.10594       -1.77049       -0.35873
B          5.48012       -1.50577        1.00950
B          5.69825        0.04191        1.00985
B          5.50043        1.57801        1.05327
B         -0.07369       -0.00012       -0.39696
