45
isomer_0725.log	Energy: -113675.8854093
B         -2.56386        1.72995        0.53169
B         -2.51494        3.30343       -0.03572
B         -1.15825        4.14889       -0.10895
B          0.26780        3.40259        0.53755
B         -1.17065        0.85047        1.06959
B          1.71708        0.84358        0.78565
B          1.64073        4.17000       -0.25941
B         -3.98463        0.84454        0.22548
B          1.72362        2.55174        0.42984
B         -3.87053        2.48443       -0.27457
B          0.21815        4.74798       -0.35354
B          3.00767        3.34135       -0.27931
B          3.12815        1.73368        0.21977
B          4.54734        0.89544       -0.14362
B          0.36980       -1.82509        1.11745
B          1.80277       -2.53240        0.48881
B          3.17377       -1.67959        0.26056
B          4.53224       -0.79656       -0.23803
B          4.40788       -2.44361       -0.74872
B          3.09312       -3.27986       -0.26562
B          1.74944       -4.14375       -0.24621
B          0.35207       -3.38475        0.51449
B          0.34320       -4.74577       -0.35191
B         -2.42647       -3.33532       -0.04063
B         -1.04629       -4.15740       -0.12330
B         -2.50840       -1.76013        0.48734
B         -3.80898       -2.53781       -0.29370
B         -3.95607       -0.91141        0.21560
B         -1.11857       -2.59022        0.76422
B         -1.18670        2.57722        0.78934
B          3.29350        0.01659        0.60947
B         -1.12927       -0.84893        1.04040
B          4.32594        2.50066       -0.77012
B         -5.10515        1.65083       -0.84422
B         -5.19550       -0.04551       -0.52260
B         -5.06003       -1.73955       -0.86549
B         -6.08460       -0.81487       -1.61254
B         -6.10520        0.70580       -1.60493
B          1.78738       -0.83027        0.91295
B         -2.61000       -0.01657        0.74609
B          0.31223        1.83051        1.08612
B          5.37229        1.57021       -1.33796
B          5.62060        0.03433       -1.30364
B          5.47461       -1.51760       -1.30028
B          0.34270        0.00276        1.09262
