45
isomer_0726.log	Energy: -110953.2715364
B         -2.65273       -1.64621       -0.41377
B         -2.65098       -3.28145       -0.02184
B         -1.24762       -4.11571        0.22591
B          0.21224       -3.29363       -0.33140
B         -1.18978       -0.76275       -0.72711
B          1.68472       -0.80512       -0.81446
B          1.59973       -4.08001        0.36202
B         -4.10760       -0.76540       -0.34541
B          1.59914       -2.40500       -0.24218
B         -4.05483       -2.45427        0.12356
B          0.17218       -4.73652        0.50735
B          3.03523       -3.23903        0.36920
B          3.06815       -1.62186       -0.20900
B          4.53170       -0.81172        0.28068
B          0.26128        1.75664       -0.89834
B          1.64728        2.45036       -0.27825
B          3.10048        1.63883       -0.23323
B          4.54775        0.80720        0.26865
B          4.39580        2.36821        0.50240
B          3.09971        3.26475        0.32087
B          1.68117        4.13382        0.30099
B          0.27827        3.36489       -0.38088
B          0.26695        4.82060        0.43633
B         -2.58460        3.41409       -0.07159
B         -1.16493        4.22395        0.16395
B         -2.61882        1.77357       -0.43918
B         -4.00454        2.61716        0.08588
B         -4.09086        0.92288       -0.35796
B         -1.18071        2.58239       -0.60892
B         -1.23097       -2.48583       -0.57126
B          3.16635       -0.09528       -0.61705
B         -1.17372        0.85672       -0.73914
B          4.34886       -2.36577        0.53758
B         -5.37067       -1.63271        0.62251
B         -5.35180       -0.00343        0.37647
B         -5.33634        1.82936        0.59678
B         -6.51062        0.89065        1.20686
B         -6.52602       -0.66195        1.21839
B          1.70104        0.84078       -0.82669
B         -0.53373       -1.95031       -0.79133
B          0.22708       -1.69322       -0.87271
B          5.86460       -1.66815        0.74546
B          6.07668        0.04351        0.79760
B          5.89607        1.77535        0.79047
B          1.11941        0.19962       -0.04821
