45
isomer_0727.log	Energy: -113403.0472710
B         -2.58819        1.60279        0.25727
B         -2.48940        3.25945       -0.22740
B         -1.11118        4.07486       -0.31872
B          0.31440        3.28577        0.30257
B         -1.13984        0.68872        0.52328
B          1.70967        0.77087        1.03614
B          1.71119        4.11945       -0.20995
B         -4.04133        0.94457        0.32460
B          1.75102        2.48538        0.57045
B         -3.89632        2.43407       -0.42593
B          0.31459        4.70127       -0.42965
B          3.08195        3.23081       -0.14568
B          3.19287        1.70967        0.44286
B          4.50753        0.75411       -0.11331
B          0.26977       -1.76357        0.93685
B          1.63115       -2.50192        0.21344
B          3.10030       -1.77057        0.12969
B          4.56985       -0.90928       -0.02270
B          4.34712       -2.48684       -0.77966
B          2.94653       -3.29096       -0.46284
B          1.50830       -4.09960       -0.51063
B          0.20626       -3.35182        0.32602
B          0.07874       -4.66155       -0.56921
B         -2.61248       -3.16466        0.03314
B         -1.29512       -4.04507       -0.19487
B         -2.64851       -1.56118        0.68040
B         -3.98837       -2.29397       -0.05050
B         -4.05389       -0.71465        0.44787
B         -1.28715       -2.52218        0.66849
B         -1.18862        2.45619        0.29982
B          3.25415       -0.06117        0.66012
B         -1.14521       -0.81798        1.12594
B          4.47557        2.43122       -0.48778
B         -5.24264        1.73240       -0.76851
B         -5.35404        0.09063       -0.27527
B         -5.29464       -1.58844       -0.51200
B         -6.43533       -0.68303       -1.16754
B         -6.43412        0.80612       -1.24422
B          1.67132       -0.82760        0.63432
B          0.26633       -0.01806        1.71342
B          0.29101        1.67654        0.80938
B          5.60491        1.52995       -0.96676
B          5.72912       -0.01888       -1.05203
B          5.45956       -1.54763       -1.18559
B          0.25314       -0.08425       -0.01531
