45
isomer_0073.log	Energy: -113433.3500892
B          2.40437        1.82736       -0.54650
B          2.32514        3.49708       -0.09343
B          0.94363        4.25878       -0.03488
B         -0.43419        3.42371       -0.62226
B          1.17270        0.93355       -1.15333
B         -1.73828        0.81810       -0.92299
B         -1.84414        4.14177        0.13599
B          3.73680        1.08607       -0.03075
B         -1.83899        2.50042       -0.56927
B          3.62525        2.70357        0.23252
B         -0.47270        4.80096        0.20603
B         -3.15373        3.22932        0.19608
B         -3.16091        1.62322       -0.25479
B         -4.46781        0.67984        0.27142
B         -0.15184       -1.74871       -1.13474
B         -1.43367       -2.50465       -0.32542
B         -2.92595       -1.79015       -0.14758
B         -4.34736       -0.98120        0.28706
B         -4.00899       -2.53334        0.96915
B         -2.68071       -3.35017        0.40887
B         -1.32428       -4.09672        0.24899
B         -0.06032       -3.41307       -0.97938
B          0.14126       -4.50042        0.26463
B          2.59594       -3.17469       -0.07746
B          1.45395       -4.16148       -0.41258
B          2.43646       -1.54590       -0.46197
B          3.80743       -2.22115        0.32977
B          3.79216       -0.65523       -0.00540
B          1.41118       -2.56993       -1.41518
B          1.05317        2.66448       -0.89707
B         -3.21701       -0.09387       -0.56303
B          1.26092       -0.70225       -1.14943
B         -4.40796        2.35640        0.74072
B          4.90189        1.91284        0.93362
B          4.94190        0.26935        0.67535
B          5.02069       -1.38594        0.99248
B          5.98017       -0.43712        1.74471
B          5.92766        1.06014        1.72011
B         -1.59616       -0.84230       -0.80735
B          0.89937       -2.54468        0.28235
B         -0.39504        1.85231       -1.22180
B         -5.38755        1.39287        1.37915
B         -5.44146       -0.15379        1.46726
B         -5.09553       -1.66860        1.54377
B         -0.24743        0.04322       -1.20342
