45
isomer_0730.log	Energy: -112888.7567087
B          2.60886       -1.66807        0.41286
B          2.58298       -3.31324        0.03699
B          1.21511       -4.13677       -0.19400
B         -0.24013       -3.33116        0.34078
B          1.17534       -0.79766        0.72591
B         -1.69989       -0.81399        0.79529
B         -1.61163       -4.10592       -0.33830
B          4.00346       -0.80621        0.31447
B         -1.64050       -2.44618        0.23939
B          3.95031       -2.47166       -0.11950
B         -0.19731       -4.72531       -0.46277
B         -3.04130       -3.26053       -0.35918
B         -3.08778       -1.65226        0.19249
B         -4.54485       -0.81912       -0.29143
B         -0.28393        1.70979        0.86300
B         -1.66594        2.41923        0.24658
B         -3.10192        1.62094        0.20459
B         -4.54060        0.79006       -0.28308
B         -4.41380        2.36539       -0.54524
B         -3.07971        3.22860       -0.35450
B         -1.67471        4.08287       -0.34721
B         -0.28855        3.32112        0.33074
B         -0.27957        4.71727       -0.48289
B          2.53024        3.33710       -0.00071
B          1.14466        4.14466       -0.22619
B          2.57021        1.70209        0.37665
B          3.92303        2.50668       -0.16736
B          3.99560        0.87460        0.29762
B          1.16232        2.53478        0.54789
B          1.21084       -2.52299        0.57247
B         -3.18003       -0.09204        0.58837
B          1.12392        0.81360        0.68378
B         -4.41040       -2.40276       -0.55564
B          5.23345       -1.68114       -0.64692
B          5.21850       -0.04308       -0.42764
B          5.20190        1.72889       -0.66756
B          6.33077        0.79552       -1.26172
B          6.36543       -0.71610       -1.26375
B         -1.71080        0.82057        0.80186
B          0.89464        0.35655        2.14615
B         -0.26685       -1.71062        0.87056
B         -5.81052       -1.61685       -0.73820
B         -5.99416        0.02340       -0.78995
B         -5.80695        1.65311       -0.78796
B          0.13025       -0.41314       -0.27677
