45
isomer_0731.log	Energy: -112712.4022715
B          2.59150       -1.62950        0.39025
B          2.58735       -3.27540        0.01689
B          1.18221       -4.12219       -0.21391
B         -0.26987       -3.29992        0.33883
B          1.13632       -0.74573        0.70168
B         -1.74200       -0.79430        0.80747
B         -1.65848       -4.08851       -0.34069
B          4.02844       -0.74462        0.31614
B         -1.66362       -2.40881        0.24672
B          3.97958       -2.42982       -0.13930
B         -0.23783       -4.73511       -0.48344
B         -3.08800       -3.24589       -0.35085
B         -3.12473       -1.62471        0.21403
B         -4.58810       -0.81219       -0.27131
B         -0.31946        1.77249        0.87247
B         -1.71073        2.45914        0.25045
B         -3.15731        1.64650        0.21430
B         -4.60136        0.80861       -0.27330
B         -4.46100        2.37243       -0.52509
B         -3.15306        3.26611       -0.34849
B         -1.74192        4.13443       -0.34074
B         -0.33876        3.37475        0.34107
B         -0.33412        4.80801       -0.48086
B          2.51429        3.42234        0.02075
B          1.09640        4.22374       -0.21177
B          2.55128        1.78611        0.40226
B          3.91835        2.62085       -0.13230
B          4.00783        0.94526        0.31733
B          1.11881        2.59698        0.56991
B          1.17310       -2.49677        0.56930
B         -3.22242       -0.08262        0.61015
B          1.11556        0.88225        0.71687
B         -4.41796       -2.37641       -0.52528
B          5.28381       -1.60818       -0.64309
B          5.25933        0.02118       -0.40831
B          5.24218        1.82791       -0.64040
B          6.39953        0.90213       -1.24410
B          6.42560       -0.64242       -1.24856
B         -1.75815        0.85389        0.81031
B          1.23683       -0.28041        2.00001
B         -0.28536       -1.68290        0.86281
B         -5.90457       -1.65244       -0.72569
B         -6.11088        0.03580       -0.78499
B         -5.93384        1.73794       -0.79113
B          0.97522       -1.72000       -0.46642
