45
isomer_0732.log	Energy: -113340.0352287
B         -3.30666       -1.21172       -1.08531
B         -2.68701       -2.76543       -0.56971
B         -1.48559       -3.82753       -0.25351
B          0.08995       -3.40385       -0.83309
B         -1.31867       -0.77180       -1.52853
B          1.64426       -0.93596       -0.70035
B          1.22694       -4.13546        0.35812
B         -4.28801       -0.49738       -0.07686
B          1.48233       -2.61653       -0.33726
B         -3.88778       -2.03044        0.32384
B         -0.27345       -4.50676        0.32048
B          2.61535       -3.39486        0.60297
B          2.90043       -1.83809        0.07818
B          4.31943       -1.04755        0.53828
B          0.40630        1.65460       -1.10567
B          1.87909        2.40533       -0.61892
B          3.25168        1.53814       -0.25745
B          4.58528        0.58008        0.16651
B          4.44574        2.32420        0.65299
B          3.26072        3.17566        0.01536
B          1.91356        4.08481       -0.15189
B          0.50377        3.33954       -0.86429
B          0.55941        4.75390       -0.12905
B         -2.29679        3.44754       -0.23894
B         -0.88716        4.18645       -0.31194
B         -2.47805        1.69585       -0.55511
B         -3.49452        2.67246        0.40296
B         -3.90607        1.10444       -0.02766
B         -1.06947        2.57518       -0.83962
B         -1.22886       -2.58195       -1.46180
B          3.21333       -0.19546       -0.47416
B         -1.18144        0.82186       -1.11017
B          3.95422       -2.59334        1.20861
B         -4.76151       -1.36143        1.41723
B         -4.78327        0.36703        1.23156
B         -4.25817        1.93369        1.54968
B         -4.99740        1.05479        2.65465
B         -5.28320       -0.40262        2.56493
B          1.73497        0.73128       -0.72093
B         -2.42692       -1.81928       -2.11158
B          0.30360       -1.76693       -1.29009
B          5.08953       -1.74853        1.74376
B          5.41900       -0.21533        1.56671
B          5.31442        1.30604        1.40261
B          0.18669       -0.08465       -1.14554
