45
isomer_0733.log	Energy: -113559.9451672
B          2.72348        1.06581       -0.84619
B          3.41426        2.58169       -0.82851
B          2.45524        3.81208       -0.53443
B          0.75878        3.61397       -0.91458
B          0.99456        0.80479       -1.04534
B         -0.71946        1.00703       -0.50031
B         -0.01230        4.35458        0.45056
B          3.73244       -0.20972       -0.42758
B         -0.64613        2.88777       -0.33880
B          4.35086        1.36311       -0.39333
B          1.40614        4.72010        0.06946
B         -1.40944        3.67323        0.91600
B         -1.63978        2.03787        0.62725
B         -3.30834        1.64262        0.96647
B         -0.73713       -1.94365       -1.50523
B         -2.41788       -2.02164       -1.32427
B         -3.24554       -0.78383       -0.63370
B         -4.09882        0.44851        0.06528
B         -4.90357       -1.03499       -0.13646
B         -4.02285       -2.22860       -0.86993
B         -3.16348       -3.48680       -0.56715
B         -1.39739       -3.39339       -0.91842
B         -2.16849       -4.22843        0.24831
B          0.73833       -3.26266        0.89781
B         -0.68957       -3.86149        0.60911
B          1.31529       -2.02138       -0.16480
B          2.26863       -2.82168        1.13676
B          2.96027       -1.66320        0.19605
B         -0.50643       -2.03911        0.34864
B          1.83074        2.35834       -1.39262
B         -2.38506        0.62469       -0.06996
B          1.99563       -0.48344       -0.70262
B         -2.75858        3.14972        1.53685
B          5.24668        0.26504        0.32133
B          4.55647       -1.27578        0.57185
B          3.75874       -2.49405        1.49127
B          5.21568       -1.98319        1.85501
B          5.90534       -0.78026        1.29693
B         -1.46811       -0.75174       -0.34919
B          0.27258       -3.18197       -0.82204
B          0.17759        2.16773       -1.55876
B         -4.16465        2.60976        1.87392
B         -4.96178        1.38838        1.34806
B         -5.49527        0.04472        0.73448
B          0.24234       -0.67056       -0.71718
