45
isomer_0734.log	Energy: -113358.2751820
B         -2.81709        1.50297        0.77859
B         -2.89846        3.09105       -0.06111
B         -1.59341        3.85920       -0.44240
B         -0.04363        3.17520       -0.02219
B         -1.32865        0.79095        0.97355
B          1.48276        0.62448        0.25840
B          1.25013        3.97854       -0.77742
B         -4.17670        0.68986        0.67956
B          1.40576        2.34915       -0.14530
B         -4.19132        2.23224        0.11132
B         -0.22092        4.45917       -0.91510
B          2.72777        3.30041       -0.49584
B          2.89922        1.76578        0.14083
B          4.45080        1.15511        0.43304
B          0.44045       -1.80292        1.27462
B          1.86788       -2.35990        0.42089
B          3.29797       -1.50900        0.71799
B          4.61171       -0.50763        0.33189
B          4.75846       -2.15400       -0.04112
B          3.35934       -2.92846       -0.10971
B          2.06112       -3.55107       -0.81804
B          0.77900       -2.34128       -0.90936
B          0.72074       -3.92796       -1.29762
B         -2.11983       -2.95375       -0.48924
B         -0.66965       -3.34686       -0.98158
B         -2.35930       -1.67203        0.69641
B         -3.59677       -2.42096       -0.27014
B         -3.86926       -1.00381        0.48766
B         -0.89619       -1.69545       -0.59486
B         -1.44949        2.30740        0.33499
B          3.12229        0.20129        0.87620
B         -0.90399       -0.73008        0.85287
B          4.20457        2.65194       -0.50588
B         -5.55368        1.32777       -0.11145
B         -5.39455       -0.32880        0.27679
B         -5.07999       -1.86623       -0.38986
B         -6.33977       -1.10139       -0.84954
B         -6.56653        0.34882       -0.69217
B          1.73509       -0.79644        1.24947
B         -1.00875       -2.54076        0.95629
B          0.05762        1.54130        0.54169
B          5.45394        1.81348       -0.61816
B          5.90182        0.34171       -0.36630
B          5.92288       -1.19785       -0.24624
B          0.56662       -0.77115       -0.24242
