45
isomer_0736.log	Energy: -113511.4628513
B         -2.26403       -1.88907       -0.73243
B         -2.48808       -3.56622       -0.49483
B         -1.21315       -4.43117       -0.19265
B          0.34571       -3.83585       -0.67415
B         -1.82920       -0.25850       -0.48947
B          1.26787       -0.95216       -0.84575
B          1.42842       -4.25433        0.58851
B         -3.41634       -0.86513       -0.19742
B          1.60321       -2.74017       -0.33781
B         -3.63892       -2.57797       -0.06494
B          0.10393       -4.96840        0.41427
B          2.69875       -3.24384        0.77911
B          2.59503       -1.66282        0.29264
B          4.05332       -0.80305        0.53244
B          0.06987        1.95734       -0.90157
B          1.59027        2.58531       -0.64872
B          2.87718        1.65429       -0.30952
B          4.27418        0.74634       -0.07712
B          4.29016        2.43068        0.31874
B          2.96984        3.31346       -0.02455
B          1.73021        4.27600        0.00638
B          0.23259        3.61211       -0.58956
B          0.39130        5.00040        0.20356
B         -2.53482        3.87154        0.14286
B         -1.08750        4.58619        0.08165
B         -2.78509        2.43175       -0.77145
B         -3.52644        2.75287        0.64918
B         -3.19515        0.97489        0.03766
B         -1.28307        2.95889       -0.51971
B         -1.06555       -3.00316       -1.23604
B          2.77237       -0.08875       -0.38044
B         -1.62120        1.32172       -0.89755
B          4.01975       -2.39855        1.13388
B         -4.72216       -1.65704        0.68998
B         -4.52551        0.07060        0.60366
B         -4.31095        1.58843        1.32968
B         -5.25787        0.58484        1.98837
B         -5.55778       -0.82806        1.58660
B          1.34663        0.81465       -0.70366
B         -0.23984        0.22925       -0.89250
B         -0.66897       -1.32623       -1.17903
B          5.23038       -1.51699        1.34695
B          5.48535       -0.01912        1.07505
B          5.34486        1.49816        0.86353
B          0.51044       -2.37314       -1.50382
