45
isomer_0740.log	Energy: -113262.8381993
B          2.49958        1.71152       -0.49246
B          2.33692        3.36900       -0.08529
B          0.95979        4.16266        0.13928
B         -0.47400        3.37965       -0.39223
B          1.12293        0.85756       -0.83308
B         -1.84904        0.80615       -0.87893
B         -1.87579        4.08634        0.34330
B          3.97700        0.99069       -0.33017
B         -1.90592        2.47398       -0.29207
B          3.74341        2.57087        0.10671
B         -0.47251        4.71971        0.45446
B         -3.25198        3.17851        0.34806
B         -3.27443        1.61224       -0.21219
B         -4.63596        0.70794        0.24422
B         -0.28689       -1.68837       -0.95718
B         -1.62424       -2.50988       -0.27301
B         -3.08327       -1.75706       -0.20879
B         -4.51939       -0.97498        0.24558
B         -4.39745       -2.61360        0.60701
B         -2.92373       -3.31898        0.35634
B         -1.47155       -4.11969        0.35634
B         -0.12319       -3.34708       -0.36543
B         -0.03633       -4.69453        0.47167
B          2.79328       -3.41959       -0.06261
B          1.40219       -4.09471        0.16350
B          2.85045       -1.96157       -0.44700
B          4.27308       -2.47244        0.18532
B          4.17526       -0.69596       -0.31232
B          1.30222       -2.53247       -0.64278
B          1.04501        2.60316       -0.64135
B         -3.28463       -0.03194       -0.60224
B          0.96969       -0.68081       -0.84838
B         -4.67981        2.35087        0.59738
B          5.09352        1.96338        0.69270
B          5.23668        0.29485        0.47755
B          5.37298       -1.48880        0.66399
B          6.39563       -0.39971        1.33520
B          6.27932        1.13617        1.34733
B         -1.75195       -0.86832       -0.84843
B          2.56176       -0.68834       -0.58215
B         -0.47935        1.79478       -0.97800
B         -5.91446        1.42533        0.84853
B         -5.99271       -0.20485        0.85210
B         -5.73921       -1.81842        0.87843
B         -0.34295        0.18675       -0.42893
