45
isomer_0742.log	Energy: -113434.6973928
B          2.66836       -1.58090        0.35932
B          2.59408       -3.26216       -0.08442
B          1.21459       -4.10164       -0.18109
B         -0.24243       -3.26546        0.20550
B          1.21068       -0.69487        0.59692
B         -1.69307       -0.75581        1.08397
B         -1.62424       -4.18609       -0.11733
B          4.10084       -0.87478        0.40890
B         -1.68621       -2.49256        0.51941
B          3.99368       -2.41746       -0.25756
B         -0.20913       -4.77060       -0.26971
B         -3.00979       -3.29889       -0.11584
B         -3.12127       -1.75415        0.40441
B         -4.40446       -0.83289       -0.26160
B         -0.35439        1.73382        0.93732
B         -1.69976        2.50489        0.27405
B         -3.07110        1.69275       -0.06237
B         -4.53984        0.82535       -0.01449
B         -4.42230        2.46980       -0.71119
B         -3.04970        3.30234       -0.37406
B         -1.63988        4.14520       -0.34748
B         -0.30873        3.37687        0.49221
B         -0.22658        4.72027       -0.36765
B          2.51876        3.23835        0.05896
B          1.16630        4.11656       -0.04529
B          2.60320        1.63211        0.67757
B          3.87781        2.36292       -0.14735
B          4.01939        0.79997        0.41863
B          1.21155        2.55745        0.68149
B          1.27441       -2.45420        0.33136
B         -3.13195        0.00866        0.47191
B          1.13032        0.83912        1.03744
B         -4.42570       -2.53047       -0.45813
B          5.28812       -1.67146       -0.69298
B          5.31310        0.00533       -0.33707
B          5.15176        1.65687       -0.67906
B          6.30353        0.76842       -1.33220
B          6.39248       -0.71849       -1.29600
B         -1.56597        0.74819        0.09558
B         -0.17781       -0.04350       -0.15392
B         -0.25469       -1.63968        0.63326
B         -5.58953       -1.64329       -0.90590
B         -5.74365       -0.07577       -0.98131
B         -5.51421        1.48319       -1.07607
B         -0.32653        0.07666        1.58185
