45
isomer_0743.log	Energy: -113523.3174175
B          2.43738       -1.83086        0.64264
B          2.20539       -3.06499       -0.49485
B          0.83354       -3.77816       -0.64863
B         -0.33464       -3.36111        0.62982
B          1.04582       -0.84114        0.81318
B         -1.79027       -0.76473        0.74592
B         -1.97105       -4.05819       -0.18347
B          3.93908       -0.95363        0.31866
B         -1.81372       -2.48570        0.37380
B          3.68689       -2.40060       -0.44783
B         -0.61008       -4.32616       -0.70382
B         -3.26761       -3.19823       -0.08646
B         -3.23359       -1.59122        0.34903
B         -4.62098       -0.64909       -0.00630
B         -0.28661        1.66181        0.74635
B         -1.65740        2.49463        0.23733
B         -3.15173        1.80254        0.20284
B         -4.64173        1.01741        0.17739
B         -4.40017        2.64589       -0.57385
B         -3.01002        3.37943       -0.31229
B         -1.57012        4.14269       -0.42874
B         -0.22087        3.34690        0.25288
B         -0.13468        4.69587       -0.55942
B          2.64030        3.28073        0.05841
B          1.25514        4.08686       -0.19971
B          2.63382        1.68156        0.60513
B          4.00923        2.46361       -0.01230
B          4.03925        0.79420        0.47863
B          1.22243        2.49649        0.54410
B          1.13402       -2.76292        1.12734
B         -3.26280        0.13610        0.67168
B          1.14296        0.81883        0.88527
B         -4.59648       -2.28649       -0.47396
B          5.05443       -1.70279       -0.75392
B          5.32890       -0.08370       -0.17575
B          5.29039        1.62837       -0.43911
B          6.32464        0.70641       -1.16473
B          6.20339       -0.77723       -1.33477
B         -1.66415        0.84023        0.57673
B          0.72823       -2.08104       -0.42700
B         -0.39221       -1.62665        0.87372
B         -5.73031       -1.37120       -0.87973
B         -5.84918        0.20586       -0.87655
B         -5.53553        1.69934       -0.97741
B          2.59069       -0.02992        0.84971
