45
isomer_0745.log	Energy: -113417.5348871
B          2.51226       -1.69304        0.41104
B          2.43439       -3.34761       -0.11567
B          1.04120       -4.14877       -0.18014
B         -0.35750       -3.37765        0.43064
B          1.15315       -0.84181        0.84623
B         -1.73362       -0.76382        1.09918
B         -1.76346       -4.11255       -0.20453
B          3.88865       -0.92944        0.08156
B         -1.77497       -2.46153        0.49499
B          3.79735       -2.51855       -0.28024
B         -0.38531       -4.76139       -0.35142
B         -3.09632       -3.18574       -0.20983
B         -3.14948       -1.63344        0.35795
B         -4.44329       -0.69675       -0.24454
B         -0.25350        1.74503        1.05715
B         -1.52877        2.52172        0.20368
B         -2.96209        1.75987        0.07089
B         -4.44634        0.97095       -0.06662
B         -4.23318        2.57813       -0.74617
B         -2.86789        3.37879       -0.33529
B         -1.47329        4.17488       -0.27539
B         -0.15623        3.39293        0.63125
B         -0.04057        4.68346       -0.32924
B          2.65893        3.29559        0.02392
B          1.34601        4.10248       -0.01061
B          2.61687        1.56893        0.61360
B          3.90552        2.39711       -0.20327
B          3.95337        0.80576        0.20229
B          1.29745        2.49271        0.67019
B          1.15551       -2.61042        0.59993
B         -3.14157        0.08548        0.56923
B          1.20170        0.78692        0.86677
B         -4.45199       -2.36611       -0.61311
B          5.14980       -1.72586       -0.77537
B          5.24960       -0.09280       -0.28590
B          5.23002        1.55791       -0.66717
B          6.28991        0.66539       -1.32264
B          6.23324       -0.83139       -1.38105
B         -1.48179        0.75998        0.20653
B         -0.28985        0.08828        1.63697
B         -0.32325       -1.75618        1.00736
B         -5.54881       -1.44118       -1.10261
B         -5.64117        0.12365       -1.13467
B         -5.34288        1.65527       -1.19270
B         -0.22784       -0.29515       -0.05318
