45
isomer_0746.log	Energy: -113661.1781706
B         -2.52690       -1.76243       -0.49399
B         -2.44088       -3.29186        0.18397
B         -1.06302       -4.09953        0.30369
B          0.34277       -3.34242       -0.36401
B         -1.16447       -0.83871       -1.01001
B          1.77844       -0.81769       -0.72773
B          1.75570       -4.12680        0.30805
B         -3.99435       -0.91553       -0.26723
B          1.80439       -2.55041       -0.53698
B         -3.84504       -2.53046        0.30163
B          0.32889       -4.68022        0.52535
B          3.12989       -3.33350        0.17037
B          3.19334       -1.71510       -0.28698
B          4.60555       -0.82454       -0.02015
B          0.33820        1.81386       -1.07552
B          1.73052        2.53622       -0.36554
B          3.13835        1.73686       -0.22526
B          4.51716        0.85521        0.26106
B          4.38299        2.49436        0.78784
B          3.02017        3.30561        0.36816
B          1.65818        4.14562        0.34047
B          0.28845        3.39697       -0.47280
B          0.23599        4.73678        0.41270
B         -2.51892        3.31820       -0.00641
B         -1.14568        4.14303        0.12824
B         -2.52637        1.69487       -0.36559
B         -3.89042        2.48412        0.25009
B         -3.99664        0.85530       -0.27650
B         -1.16002        2.56125       -0.72521
B         -1.12905       -2.57095       -0.66129
B          3.28524        0.08481       -0.58655
B         -1.11917        0.83776       -0.89640
B          4.46507       -2.46794        0.57372
B         -5.14911       -1.72994        0.73573
B         -5.24406       -0.03626        0.42197
B         -5.16639        1.66521        0.74819
B         -6.23395        0.72545        1.42501
B         -6.23477       -0.79501        1.41529
B          1.75340        0.85447       -0.91181
B         -2.62995       -0.02628       -0.78380
B          0.35786       -0.06670       -1.08219
B          5.49113       -1.50524        1.12738
B          5.71073        0.03402        1.16540
B          5.51443        1.58544        1.25133
B          0.35233       -1.83790       -1.06367
