45
isomer_0747.log	Energy: -113310.6651469
B         -2.44729        1.68677        0.37284
B         -2.40688        3.35993       -0.04670
B         -1.03738        4.16286       -0.14073
B          0.40865        3.45624        0.48951
B         -1.02316        0.95471        1.11178
B          1.74755        0.87250        0.77887
B          1.77827        4.20192       -0.24383
B         -3.93017        0.95755        0.44821
B          1.80468        2.56377        0.49012
B         -3.76385        2.52660       -0.24246
B          0.39372        4.78861       -0.38794
B          3.14801        3.29625       -0.22536
B          3.22303        1.72880        0.26665
B          4.65083        0.80368       -0.02836
B          0.29811       -1.62003        0.86041
B          1.58358       -2.44794        0.28522
B          3.16600       -1.73240        0.33639
B          4.62295       -0.87457       -0.03151
B          4.34341       -2.55918       -0.53591
B          2.98752       -3.28251       -0.14227
B          1.48177       -4.02747       -0.23180
B          0.08684       -3.36709        0.94770
B          0.07805       -4.56543       -0.28657
B         -2.73300       -3.18819        0.02210
B         -1.26699       -3.83203       -0.22402
B         -2.74975       -1.49817        0.15981
B         -4.08462       -2.48247        0.23312
B         -4.12195       -0.72368        0.55074
B         -1.21372       -2.16240        0.32785
B         -1.08473        2.65681        0.64637
B          3.23412       -0.01123        0.65994
B         -2.17193       -0.05626        0.32866
B          4.42694        2.41672       -0.69425
B         -5.04689        1.79947       -0.78888
B         -5.11040        0.14708       -0.43503
B         -5.14020       -1.56883       -0.55456
B         -6.07486       -0.61717       -1.45670
B         -6.13904        0.88215       -1.44883
B          1.76696       -0.74989        0.73724
B         -0.88378       -0.60007        1.20760
B          0.42446        1.80867        1.00680
B          5.48763        1.44156       -1.20001
B          5.66441       -0.11581       -1.14525
B          5.47431       -1.66552       -1.08207
B          0.14878       -2.76430       -0.69489
