45
isomer_0748.log	Energy: -113376.7096318
B          1.97368       -1.45761        0.08557
B          2.45198       -3.21660        0.34482
B          1.31649       -4.31739        0.36444
B         -0.19966       -3.36197        0.95863
B          0.86033       -0.59327        1.19362
B         -1.18608       -0.64919        0.75168
B         -1.55033       -4.03526       -0.07053
B          3.37417       -0.63945       -0.35203
B         -1.54721       -2.36890        0.58732
B          3.51924       -2.24940       -0.33118
B         -0.08921       -4.61523       -0.10787
B         -2.81102       -3.19567       -0.20753
B         -2.90351       -1.56506        0.17403
B         -4.26806       -0.75634       -0.24178
B         -0.29837        1.81556        1.19124
B         -1.64418        2.59262        0.50169
B         -3.00055        1.78067        0.15293
B         -4.33034        0.89436       -0.39102
B         -4.18897        2.53856       -0.88040
B         -2.92825        3.37135       -0.28763
B         -1.58441        4.23161       -0.13705
B         -0.23972        3.49462        0.70245
B         -0.18467        4.86452       -0.09115
B          2.53454        3.48530        0.28316
B          1.19938        4.27892        0.25937
B          2.52241        1.75670        0.73922
B          3.69615        2.63267       -0.16841
B          3.66134        1.00642       -0.03685
B          1.18396        2.61058        1.04097
B          0.86064       -2.93133       -0.46164
B         -3.02183        0.08408        0.45764
B          1.17961        0.99207        1.29598
B         -4.14180       -2.36526       -0.77657
B          4.65374       -1.53282       -1.18706
B          4.77856        0.09439       -0.74925
B          5.00288        1.75119       -0.79759
B          5.99696        0.83637       -1.54041
B          5.78736       -0.64031       -1.78600
B         -1.61242        0.93409        0.87915
B          1.24170       -2.38952        1.33147
B         -0.31152       -1.81481        1.66623
B         -5.20382       -1.47977       -1.35047
B         -5.42998        0.05423       -1.42728
B         -5.24660        1.58540       -1.48634
B          0.12735       -1.51112       -0.09556
