45
isomer_0075.log	Energy: -113433.8860770
B          2.47559        1.77790       -0.51674
B          2.44544        3.44200        0.07704
B          1.08151        4.19460        0.27050
B         -0.35546        3.41001       -0.29225
B          1.17498        0.94038       -0.99387
B         -1.74555        0.89041       -0.77961
B         -1.75082        4.12773        0.47807
B          3.82120        0.99523       -0.19150
B         -1.78689        2.53150       -0.28975
B          3.79983        2.63393        0.11247
B         -0.34297        4.73745        0.58937
B         -3.11700        3.26952        0.41245
B         -3.17613        1.69320       -0.18426
B         -4.60427        0.79246        0.01447
B         -0.32152       -1.67893       -1.33343
B         -1.61447       -2.47788       -0.55868
B         -3.07310       -1.69341       -0.39379
B         -4.48329       -0.87250        0.06907
B         -4.32731       -2.51280        0.54128
B         -2.90555       -3.24374        0.13391
B         -1.47710       -3.93739        0.30173
B          0.02110       -3.24097       -0.36805
B         -0.14486       -4.39613        0.78509
B          2.62675       -3.18666        0.83739
B          1.27055       -3.96095        0.93664
B          2.42222       -1.68081       -0.42967
B          3.75030       -2.20393        0.55993
B          3.78216       -0.76967       -0.14686
B          1.78176       -3.32997       -0.49724
B          1.13038        2.65443       -0.66547
B         -3.28797        0.00184       -0.72550
B          1.21474       -0.65923       -0.98211
B         -4.43422        2.38069        0.75773
B          5.15695        1.82251        0.48723
B          5.15695        0.15142        0.13903
B          5.16814       -1.42926        0.68816
B          6.29971       -0.54450        1.14492
B          6.25973        0.93977        1.09313
B         -1.71480       -0.77950       -1.05033
B          1.11161       -2.31286       -1.44917
B         -0.36380        1.87736       -0.95693
B         -5.48611        1.38888        1.20904
B         -5.68259       -0.14040        1.10376
B         -5.47717       -1.68188        1.03555
B         -0.27866        0.08015       -0.97273
