45
isomer_0752.log	Energy: -113555.2025397
B         -2.42982       -1.68079       -0.62292
B         -2.18195       -3.09477        0.15882
B         -0.85986       -3.84883        0.43652
B          0.54701       -3.34011       -0.32033
B          0.23868       -0.23440       -1.08850
B          1.93723       -0.87592       -1.03148
B          1.93562       -3.93279        0.66973
B         -4.00956       -0.98165       -0.33210
B          2.04810       -2.51165       -0.27179
B         -3.65408       -2.46913        0.28935
B          0.50990       -4.46507        0.80963
B          3.31471       -3.06014        0.58545
B          3.32198       -1.56129       -0.15650
B          4.63793       -0.56454        0.20205
B          0.16837        1.38548       -0.25581
B          1.56952        2.38450       -0.20887
B          3.11356        1.82297       -0.39382
B          4.67570        1.05453       -0.33608
B          4.38532        2.69743        0.31100
B          2.91314        3.34665        0.14845
B          1.45276        4.05546        0.31084
B          0.09742        3.03322        0.28811
B         -0.00714        4.59693        0.48145
B         -2.77163        3.12048        0.21213
B         -1.41350        3.92109        0.40656
B         -2.76193        1.47623       -0.28652
B         -4.18601        2.32964        0.11000
B         -4.24437        0.76357       -0.58152
B         -1.34933        2.21251        0.00090
B         -0.84498       -2.29566       -0.62522
B          3.31231        0.09319       -0.68261
B         -1.29385        0.65368       -0.67339
B          4.70845       -2.17197        0.76541
B         -5.01382       -1.77348        0.76365
B         -5.40220       -0.19024        0.21335
B         -5.50832        1.52280        0.38549
B         -6.51652        0.53689        1.09467
B         -6.25120       -0.92242        1.33012
B          1.70119        0.75936       -0.74533
B         -2.78173       -0.03539       -1.12178
B          0.67832       -1.90650       -1.11016
B          5.88787       -1.22479        0.93061
B          5.97174        0.35574        0.75827
B          5.59968        1.85144        0.70179
B         -1.24470       -0.83226       -1.51962
