45
isomer_0753.log	Energy: -113386.0047432
B          2.13767        2.07002        0.95261
B          2.21692        3.74397        0.65051
B          0.80021        4.42382        0.31570
B         -0.33375        3.41394       -0.44240
B          1.52393        0.86025       -0.01868
B         -1.46504        0.74302       -0.62134
B         -1.89121        4.22361       -0.28362
B          3.33148        1.15215        0.28037
B         -1.67326        2.46983       -0.70709
B          3.53007        2.95233        0.70058
B         -0.60951        4.93082        0.04874
B         -3.15432        3.25197       -0.41652
B         -3.04065        1.63136       -0.51961
B         -4.44869        0.73639       -0.22205
B         -0.10541       -1.78970       -0.09873
B         -1.60672       -2.49472        0.34475
B         -3.02604       -1.74089        0.06547
B         -4.47199       -0.93977       -0.18299
B         -4.45545       -2.46861        0.66899
B         -3.05051       -3.33680        0.58050
B         -1.75009       -4.25324        0.53804
B         -0.24826       -3.43464        0.08791
B         -0.40161       -4.98514        0.39621
B          3.70322       -3.25649       -0.87252
B          1.04975       -4.49938        0.04507
B          2.65598       -1.98873       -0.55159
B          4.24482       -1.84173       -0.87675
B          3.28298       -0.46445       -0.19591
B          1.21113       -2.75084       -0.32354
B          1.13459        2.64760       -0.12119
B         -3.01625       -0.09502       -0.54006
B          1.46663       -0.91349       -0.30474
B         -4.54558        2.44667       -0.11998
B          4.79942        2.05814        0.50648
B          4.67453        0.32164        0.54329
B          5.37113       -1.03637       -0.19382
B          6.36782       -0.20250        0.42740
B          6.06552        1.23486        0.46908
B         -1.49736       -0.82395       -0.12449
B          2.44686       -3.86635       -0.42039
B         -0.10276        1.75725       -0.71294
B         -5.72147        1.55685        0.25183
B         -5.84588        0.03049        0.48631
B         -5.60280       -1.47338        0.81295
B          0.04996       -0.00080       -0.30183
