45
isomer_0754.log	Energy: -113559.5702987
B          2.41349        1.91951       -0.52069
B          2.24770        3.44004        0.13822
B          0.78311        4.18376        0.23312
B         -0.57113        3.37198       -0.40284
B          0.98022        0.91800       -0.96464
B         -1.79124        0.72447       -0.71642
B         -2.02967        4.03893        0.25301
B          3.80540        1.06737       -0.09735
B         -1.97303        2.41239       -0.45221
B          3.66559        2.76734        0.33660
B         -0.66194        4.69728        0.47752
B         -3.35526        3.13121        0.15201
B         -3.36434        1.53919       -0.33818
B         -4.73717        0.60092       -0.20463
B         -0.22632       -1.68102       -1.04811
B         -1.57444       -2.53360       -0.40537
B         -3.02834       -1.82886       -0.18288
B         -4.51804       -1.02939        0.13320
B         -4.28439       -2.67508        0.63686
B         -2.86118       -3.37046        0.30701
B         -1.37615       -4.09085        0.35416
B         -0.09914       -3.31616       -0.47952
B          0.05733       -4.55641        0.51753
B          2.71031       -3.04317        0.01409
B          1.42460       -3.89710        0.16251
B          2.74637       -1.48024       -0.78014
B          4.04553       -2.18231        0.30162
B          4.17397       -0.63822       -0.91037
B          1.33551       -2.40185       -0.72852
B          0.90041        2.60919       -0.50321
B         -3.26960       -0.16590       -0.65730
B          1.07981       -0.72331       -1.03647
B         -4.68476        2.21838        0.48179
B          4.90305        1.88906        0.85376
B          5.31246        0.26751        0.11320
B          5.38542       -1.36729        0.17032
B          4.93423       -0.91975        1.63738
B          4.66430        0.61859        1.71689
B         -1.67719       -0.86193       -0.84078
B          3.59123       -0.52895        0.75141
B         -0.47563        1.69023       -0.84744
B         -5.66596        1.18794        0.98992
B         -5.83962       -0.34948        0.96509
B         -5.54207       -1.86311        1.01622
B          2.44658        0.21114       -0.59641
