45
isomer_0755.log	Energy: -113439.4309433
B          2.49053        1.75344       -0.53225
B          2.42979        3.40118        0.08730
B          1.05810        4.16954        0.29742
B         -0.39000        3.40991       -0.29680
B          1.14972        0.94934       -1.07069
B         -1.75830        0.88537       -0.72637
B         -1.76753        4.13678        0.45939
B          3.81946        0.98220       -0.20525
B         -1.81182        2.55274       -0.42377
B          3.83920        2.63864        0.05340
B         -0.37457        4.72768        0.60662
B         -3.14332        3.27535        0.38068
B         -3.19487        1.71583       -0.16478
B         -4.63127        0.78026       -0.03341
B         -0.30243       -1.66629       -1.31113
B         -1.58639       -2.48060       -0.57575
B         -3.05650       -1.71394       -0.34849
B         -4.41855       -0.85901        0.20677
B         -4.30901       -2.52100        0.57439
B         -2.88055       -3.24471        0.14887
B         -1.44173       -3.96019        0.26329
B          0.03837       -3.24488       -0.37254
B         -0.12585       -4.47473        0.71510
B          2.60070       -3.18124        0.81217
B          1.30286       -4.05349        0.84966
B          2.45258       -1.73136       -0.42508
B          3.68835       -2.13659        0.65376
B          3.74496       -0.70791       -0.10511
B          1.78764       -3.41136       -0.57482
B          1.13080        2.65751       -0.57786
B         -3.26345        0.00648       -0.66849
B          1.25874       -0.65242       -1.03144
B         -4.45805        2.40614        0.71573
B          5.16453        1.88358        0.45374
B          5.20986        0.17690        0.11976
B          5.12405       -1.35144        0.76814
B          6.29287       -0.50490        1.19199
B          6.20713        0.98011        1.15397
B         -1.70500       -0.77512       -1.02772
B          1.12981       -2.31681       -1.43655
B         -0.37615        1.87753       -0.96325
B         -5.49808        1.38503        1.16718
B         -5.69608       -0.14771        1.10861
B         -5.47232       -1.69931        1.07056
B         -0.25819        0.08346       -0.98696
