45
isomer_0756.log	Energy: -113371.0585074
B         -2.65174       -1.47537       -0.66296
B         -2.72148       -3.20584       -0.07896
B         -1.31336       -3.86619        0.16391
B          0.17476       -3.33183       -0.50272
B         -1.21044       -0.80605       -0.90791
B          1.67750       -0.81702       -0.87568
B          1.49532       -4.03743        0.41101
B         -4.03882       -0.66345       -0.43657
B          1.66857       -2.48039       -0.35183
B         -3.95329       -2.27685        0.08387
B          0.07221       -4.51283        0.57052
B          2.92717       -3.27735        0.35214
B          3.09250       -1.72149       -0.19911
B          4.47338       -0.86726        0.18327
B          0.36229        1.80677       -1.10253
B          1.79720        2.52111       -0.41792
B          3.18993        1.70070       -0.28014
B          4.59021        0.79144        0.07524
B          4.49895        2.42504        0.62057
B          3.13754        3.25969        0.28029
B          1.75346        4.09774        0.33087
B          0.36646        3.37518       -0.49013
B          0.34727        4.63134        0.49307
B         -2.45407        3.33995       -0.01083
B         -1.07431        4.07357        0.17615
B         -2.54370        1.68564       -0.56656
B         -3.80229        2.54376        0.24846
B         -4.01088        1.00113       -0.41466
B         -1.16037        2.57144       -0.66064
B         -1.25642       -2.59099       -1.19758
B          3.28158       -0.01772       -0.61886
B         -1.17701        0.83321       -0.95827
B          4.36579       -2.50193        0.70144
B         -5.13551       -1.47155        0.76733
B         -5.11093        0.17802        0.51551
B         -5.08343        1.85448        0.78285
B         -6.14085        0.96108        1.50144
B         -6.11101       -0.54456        1.55641
B          1.76524        0.88413       -0.92939
B         -1.44980       -2.13542        0.45319
B          0.27034       -1.73832       -1.09316
B          5.49981       -1.61872        1.16690
B          5.74826       -0.07485        1.11951
B          5.58347        1.46855        1.12094
B          0.26052        0.02945       -0.91853
