45
isomer_0757.log	Energy: -113566.7899715
B         -2.79986       -1.29530       -1.45127
B         -3.01538       -2.56919       -0.20497
B         -1.93419       -3.74401       -0.04727
B         -0.28894       -3.29945       -0.98196
B         -1.23738       -0.56271       -1.26438
B          1.48724       -0.82111       -0.91725
B          0.92011       -3.87478        0.29076
B         -2.54152        0.28476       -0.56818
B          1.30283       -2.53907       -0.71073
B         -4.02376       -0.80379       -0.54609
B         -0.58749       -3.96611        0.61818
B          2.41279       -3.38172        0.25412
B          2.78599       -1.89355       -0.33890
B          4.29309       -1.19947        0.01343
B          0.34696        1.82113       -1.19402
B          1.76867        2.39728       -0.46536
B          3.11211        1.50913       -0.28924
B          4.31679        0.45791        0.31105
B          4.41876        2.11563        0.70631
B          3.12372        3.04670        0.32001
B          1.85640        4.01868        0.26741
B          0.44185        3.43200       -0.60011
B          0.51197        4.72335        0.34087
B         -2.34492        3.55032       -0.00783
B         -0.93956        4.24762        0.03830
B         -2.56841        1.99841       -0.70865
B         -3.59580        2.68892        0.43209
B         -3.99022        1.14938       -0.15520
B         -1.08688        2.76712       -0.88011
B         -1.61712       -2.46086       -1.40388
B          3.03349       -0.19177       -0.60732
B         -1.15363        1.09444       -1.24017
B          3.85227       -2.70879        0.72080
B         -3.96112       -1.75024        0.92557
B         -3.56231       -0.01618        1.00792
B         -4.25272        1.59029        1.44710
B         -4.48544        0.47276        2.39218
B         -4.35625       -0.98125        2.18748
B          1.65103        0.78669       -1.05475
B         -2.28040       -1.09438        0.44204
B          0.01026       -1.53341       -0.99245
B          5.01952       -1.90143        1.26455
B          5.49572       -0.43721        1.17986
B          5.51679        1.12247        1.11905
B         -1.05504       -2.24921        0.35103
