45
isomer_0759.log	Energy: -113311.5401611
B          2.52819       -1.60822        0.44347
B          2.59684       -3.29445        0.03963
B          1.21723       -4.10340       -0.12576
B         -0.21400       -3.38018        0.49891
B          1.18695       -0.78360        0.72970
B         -1.67557       -0.78121        0.95237
B         -1.59876       -4.13798       -0.28781
B          3.91780       -0.77533        0.28572
B         -1.63431       -2.49541        0.36953
B          3.89813       -2.35557       -0.17482
B         -0.21101       -4.70896       -0.42110
B         -2.94257       -3.24730       -0.30959
B         -3.03097       -1.69289        0.25308
B         -4.40706       -0.79404       -0.19978
B         -0.33199        1.83775        0.99348
B         -1.71024        2.56444        0.37196
B         -3.08901        1.74133        0.23218
B         -4.42026        0.84079       -0.21401
B         -4.40621        2.50780       -0.65141
B         -3.02273        3.32376       -0.35938
B         -1.65983        4.17664       -0.35928
B         -0.28792        3.42987        0.44001
B         -0.23303        4.73476       -0.45653
B          2.55596        3.41864        0.07811
B          1.18418        4.16488       -0.09208
B          2.51547        1.64395        0.52442
B          3.83466        2.57112       -0.08588
B          3.91706        0.93981        0.32578
B          1.17682        2.57702        0.62836
B          1.28081       -2.66371        0.82130
B         -3.17353        0.02361        0.58262
B          1.13051        0.89512        0.78699
B         -4.36186       -2.44793       -0.62372
B          5.15712       -1.54223       -0.72149
B          5.09761        0.10297       -0.44000
B          5.12973        1.74752       -0.63669
B          6.19461        0.88501       -1.35091
B          6.20268       -0.62099       -1.39731
B         -1.71002        0.90071        0.93587
B          0.69175       -1.89932       -0.53546
B         -0.25504       -1.77261        1.03742
B         -5.51908       -1.55660       -1.03240
B         -5.71734        0.01613       -1.03194
B         -5.55294        1.57805       -1.05579
B         -0.24881        0.04024        1.23221
