45
isomer_0076.log	Energy: -110222.3078769
B          2.60955       -1.65827        0.38455
B          2.59682       -3.29132       -0.01622
B          1.18798       -4.11414       -0.27102
B         -0.26699       -3.28463        0.28808
B          1.15239       -0.76604        0.69999
B         -1.72249       -0.78826        0.78190
B         -1.65878       -4.05729       -0.41210
B          4.07082       -0.78756        0.32359
B         -1.64731       -2.38560        0.20114
B          4.00682       -2.47346       -0.15460
B         -0.23571       -4.72323       -0.55838
B         -3.08820       -3.20601       -0.41734
B         -3.11062       -1.59179        0.16953
B         -4.56741       -0.76854       -0.31842
B         -0.28090        1.76273        0.88221
B         -1.66074        2.46971        0.26336
B         -3.11964        1.66888        0.21131
B         -4.57189        0.85036       -0.29768
B         -4.40833        2.41148       -0.52272
B         -3.10619        3.29771       -0.33399
B         -1.68150        4.15647       -0.30684
B         -0.28541        3.37383        0.37341
B         -0.26215        4.83380       -0.43590
B          2.57830        3.40416        0.06959
B          1.16491        4.22544       -0.16415
B          2.60009        1.76147        0.42837
B          3.99279        2.59793       -0.08961
B          4.06615        0.90071        0.34522
B          1.16750        2.57967        0.59986
B          1.18152       -2.48851        0.53491
B         -3.19864       -0.06676        0.58564
B          1.14791        0.85341        0.72075
B         -4.39524       -2.32245       -0.58339
B          5.32944       -1.65868       -0.64671
B          5.32178       -0.03066       -0.39191
B          5.31986        1.80336       -0.60234
B          6.48851        0.85956       -1.21535
B          6.49281       -0.69303       -1.23524
B         -1.72704        0.85762        0.80299
B          1.45027       -0.42165        0.35624
B         -0.27136       -1.68710        0.83800
B         -5.90555       -1.61287       -0.79024
B         -6.10527        0.10052       -0.83352
B         -5.91227        1.83096       -0.81671
B         -0.73662       -1.72193        1.55374
