45
isomer_0760.log	Energy: -113391.2033379
B          2.45024       -1.68460        0.37424
B          2.41362       -3.29903        0.03298
B          1.06469       -4.10184       -0.17556
B         -0.37874       -3.26395        0.41654
B          0.99464       -0.64006        0.37993
B         -1.74848       -0.81666        1.12188
B         -1.72575       -4.02451       -0.41513
B          3.95954       -0.90654        0.32525
B         -1.86942       -2.52290        0.47506
B          3.81135       -2.51598       -0.19134
B         -0.32293       -4.63256       -0.49226
B         -3.09713       -3.12190       -0.42412
B         -3.20172       -1.63218        0.26698
B         -4.51323       -0.68907       -0.21258
B         -0.29358        1.72376        0.90487
B         -1.66046        2.47385        0.40638
B         -3.13053        1.75905        0.33732
B         -4.60039        0.93286        0.05322
B         -4.35510        2.53377       -0.60806
B         -2.98928        3.29580       -0.26708
B         -1.62656        4.14058       -0.31288
B         -0.25195        3.37163        0.40825
B         -0.22170        4.73511       -0.42465
B          2.58603        3.32051       -0.02967
B          1.18528        4.14014       -0.18682
B          2.62235        1.75912        0.49854
B          3.98217        2.49930       -0.20344
B          4.05631        0.87689        0.29776
B          1.21445        2.57802        0.56485
B          1.00508       -2.40154        0.58327
B         -3.25757        0.06558        0.66392
B          1.15739        0.87555        0.82251
B         -4.48943       -2.31903       -0.71331
B          5.12861       -1.75566       -0.63915
B          5.25539       -0.06434       -0.35152
B          5.24495        1.64129       -0.66854
B          6.30901        0.64861       -1.31369
B          6.26619       -0.85676       -1.30263
B         -1.68899        0.77465        0.85016
B          2.58743        0.03958        0.74134
B         -0.51198       -1.99151        1.53605
B         -5.65948       -1.44038       -1.05227
B         -5.78850        0.12262       -1.04956
B         -5.48760        1.62985       -1.08856
B         -0.42423       -1.25713        0.06151
