45
isomer_0762.log	Energy: -113308.9311474
B          2.58458       -1.50538        0.50759
B          2.67443       -3.21065        0.13543
B          1.31066       -4.03315       -0.10774
B         -0.15363       -3.29838        0.38858
B          1.24667       -0.76947        1.64498
B         -1.67015       -0.85507        0.80618
B         -1.44781       -4.02613       -0.50632
B          3.96349       -0.71654        0.24002
B         -1.62798       -2.48325        0.22433
B          3.97652       -2.35969       -0.00300
B         -0.03790       -4.60287       -0.52933
B         -2.89909       -3.24823       -0.52993
B         -3.02616       -1.71789        0.11167
B         -4.45227       -0.88618       -0.27504
B         -0.32000        1.71162        0.89702
B         -1.78280        2.47584        0.35811
B         -3.16887        1.64268        0.32495
B         -4.56653        0.75555       -0.08337
B         -4.57950        2.40908       -0.43999
B         -3.15091        3.20480       -0.21175
B         -1.72195        4.05063       -0.29736
B         -0.31889        3.32330        0.40157
B         -0.33168        4.65570       -0.47855
B          2.43820        3.32665       -0.17723
B          1.09222        4.09131       -0.23529
B          2.53806        1.67594        0.50510
B          3.76179        2.52288       -0.31493
B          3.92023        0.97670        0.21718
B          1.13764        2.48227        0.56567
B          1.27961       -2.47911        0.76496
B         -3.21446       -0.08507        0.52490
B          1.19900        0.80219        1.00856
B         -4.35967       -2.51080       -0.79910
B          5.21805       -1.51837       -0.64918
B          5.13323        0.13440       -0.44975
B          5.12724        1.76586       -0.81080
B          6.15767        0.89359       -1.49926
B          6.18859       -0.60432       -1.44692
B         -1.70147        0.78373        0.84301
B          1.11098       -0.85280        0.00201
B         -0.18214       -1.69930        1.04013
B         -5.54625       -1.63614       -1.13032
B         -5.80117       -0.06798       -1.02036
B         -5.66438        1.47101       -0.96942
B         -0.33322        0.01102        1.45298
