45
isomer_0763.log	Energy: -113424.9171137
B         -2.64202        1.59954        0.65356
B         -2.61860        3.21901        0.03186
B         -1.28184        4.07357       -0.12797
B          0.23804        3.43585        0.52694
B         -1.15783        0.80541        0.92904
B          1.52089        0.80067        0.10791
B          1.53652        4.14932       -0.43525
B         -3.96463        0.73169        0.34214
B          1.61549        2.56882        0.23078
B         -3.94390        2.29700       -0.13171
B          0.10823        4.63458       -0.53969
B          2.96054        3.33163       -0.45029
B          3.01244        1.73387       -0.08181
B          4.51455        0.92348        0.04279
B          0.28978       -1.66686        0.62433
B          1.75870       -2.45641        0.52474
B          3.14973       -1.66098        0.45322
B          4.45630       -0.74035       -0.14466
B          4.52030       -2.43587       -0.35953
B          3.11862       -3.23540       -0.01892
B          1.76534       -4.16511       -0.10014
B          0.35126       -3.28106        0.12716
B          0.37327       -4.79092       -0.31618
B         -2.46512       -3.33433       -0.25322
B         -1.07210       -4.14773       -0.30028
B         -2.58130       -1.69496        0.23800
B         -3.92314       -2.53829       -0.32336
B         -3.94901       -0.92462        0.03241
B         -1.18130       -2.52718        0.32006
B         -1.24886        2.55553        0.59228
B          3.12596        0.07840        0.53044
B         -1.18915       -0.76314        0.63828
B          4.34141        2.52557       -0.74068
B         -5.37524        1.56839       -0.33450
B         -5.37438       -0.10433       -0.10939
B         -5.24565       -1.73179       -0.74882
B         -6.36984       -0.73481       -1.21680
B         -6.53783        0.72374       -0.89784
B          1.67738       -0.71366        1.08560
B          0.31490        0.15214        1.56143
B          0.29687        1.77448        0.94624
B          5.48088        1.56580       -1.04411
B          5.76284        0.03539       -0.90419
B          5.65270       -1.53758       -0.80453
B          0.17880       -0.09852       -0.15534
