45
isomer_0764.log	Energy: -112917.3740358
B         -2.73807       -1.55640       -0.43942
B         -3.08089       -3.43628       -0.03833
B         -1.22358       -4.26131        0.20579
B          0.27692       -3.36563       -0.40243
B         -1.26096       -0.78801       -0.80244
B          1.75317       -0.81145       -0.85677
B          1.63355       -4.15517        0.25179
B         -4.05957       -0.63431       -0.41442
B          1.69032       -2.46419       -0.30985
B         -4.16137       -2.34627        0.02506
B          0.21079       -4.74883        0.37532
B          3.02562       -3.30743        0.26696
B          3.12360       -1.68707       -0.24570
B          4.55933       -0.86867        0.24570
B          0.38833        1.85885       -0.88717
B          1.80484        2.49164       -0.27000
B          3.19048        1.65381       -0.23292
B          4.57383        0.77239        0.24130
B          4.53249        2.39417        0.55171
B          3.19804        3.26018        0.33664
B          1.85610        4.15429        0.33655
B          0.44056        3.45907       -0.35185
B          0.47140        4.81420        0.46487
B         -2.37758        3.54894       -0.02008
B         -0.97989        4.32022        0.20059
B         -2.47610        1.90130       -0.43118
B         -3.80122        2.69984        0.10452
B         -3.94024        1.10049       -0.38297
B         -1.05347        2.73832       -0.58633
B         -1.20696       -2.48550       -0.65826
B          3.24096       -0.07479       -0.61883
B         -1.05258        1.09265       -0.73726
B          4.45803       -2.49925        0.50147
B         -5.36968       -1.43479        0.50726
B         -5.23172        0.20950        0.29258
B         -5.10531        1.95739        0.55240
B         -6.29437        1.08396        1.11125
B         -6.44792       -0.41106        1.10440
B          1.79776        0.88410       -0.84137
B         -1.92566       -2.85742        0.79648
B          0.36549       -1.72623       -0.91685
B          5.78404       -1.67178        0.69538
B          5.97175       -0.07057        0.75911
B          5.81811        1.51777        0.77393
B         -0.37839       -0.25067       -0.25663
