45
isomer_0765.log	Energy: -110690.0434602
B          2.65648       -1.67646        0.37577
B          2.63966       -3.31264       -0.01181
B          1.22900       -4.13263       -0.26566
B         -0.22531       -3.29360        0.28080
B          1.20118       -0.77668        0.67808
B         -1.67408       -0.78830        0.74850
B         -1.61695       -4.06709       -0.41875
B          4.12100       -0.81132        0.31370
B         -1.60213       -2.39054        0.18099
B          4.05305       -2.50081       -0.15109
B         -0.19564       -4.73911       -0.55386
B         -3.04337       -3.21095       -0.43667
B         -3.06251       -1.59196        0.13702
B         -4.51445       -0.76767       -0.36347
B         -0.22401        1.75843        0.83402
B         -1.59888        2.46513        0.20388
B         -3.06033        1.66895        0.15239
B         -4.51337        0.85136       -0.35584
B         -4.34346        2.41003       -0.59284
B         -3.03901        3.29326       -0.40601
B         -1.61145        4.14728       -0.38003
B         -0.22085        3.36536        0.31219
B         -0.18924        4.81863       -0.50881
B          2.64415        3.38333        0.01975
B          1.23458        4.20756       -0.22635
B          2.65876        1.74354        0.39189
B          4.05645        2.57096       -0.12718
B          4.12213        0.87707        0.32166
B          1.22836        2.56804        0.55095
B          1.22497       -2.50051        0.52706
B         -3.14689       -0.06331        0.54043
B          1.20226        0.84290        0.68571
B         -4.34663       -2.32426       -0.61516
B          5.38047       -1.69462       -0.64440
B          5.37747       -0.06457       -0.40281
B          5.38279        1.76768       -0.62808
B          6.55061        0.81491       -1.22869
B          6.54957       -0.73780       -1.23601
B         -1.67297        0.85771        0.75626
B         -0.73389        0.06716        2.77313
B         -0.22633       -1.69165        0.81775
B         -5.85361       -1.61117       -0.83387
B         -6.04718        0.10250       -0.89182
B         -5.84822        1.83234       -0.88823
B         -0.90216       -1.66645        0.56553
