45
isomer_0766.log	Energy: -112616.4825351
B         -2.59875        1.73868        0.41458
B         -2.58273        3.37416        0.02402
B         -1.17215        4.19624       -0.22350
B          0.28060        3.36086        0.33265
B         -1.14354        0.84210        0.72669
B          1.73125        0.85908        0.81313
B          1.67473        4.13557       -0.36058
B         -4.06134        0.87077        0.34597
B          1.65958        2.46013        0.24222
B         -3.99385        2.55951       -0.12161
B          0.25298        4.80475       -0.50488
B          3.10276        3.28200       -0.36893
B          3.12163        1.66411        0.20790
B          4.57782        0.84152       -0.28293
B          0.28533       -1.69011        0.89535
B          1.66497       -2.39549        0.27422
B          3.12524       -1.59676        0.22939
B          4.57962       -0.77748       -0.27226
B          4.41385       -2.33690       -0.50728
B          3.10998       -3.22214       -0.32607
B          1.68384       -4.07870       -0.30644
B          0.28798       -3.29802        0.37653
B          0.26358       -4.75288       -0.44189
B         -2.57530       -3.32174        0.06815
B         -1.16290       -4.14387       -0.16853
B         -2.59496       -1.68129        0.43712
B         -3.98822       -2.51221       -0.08819
B         -4.05947       -0.81761        0.35709
B         -1.16397       -2.50289        0.60571
B         -1.16959        2.56561        0.57230
B          3.20651        0.13638        0.61465
B         -1.14174       -0.77745        0.73737
B          4.40860        2.39733       -0.53848
B         -5.31704        1.74999       -0.62081
B         -5.31244        0.12040       -0.37614
B         -5.31320       -1.71227       -0.59799
B         -6.47936       -0.76275       -1.20690
B         -6.48108        0.78994       -1.21713
B          1.73307       -0.78691        0.82398
B         -0.71284       -1.60850       -0.53607
B          0.28151        1.75993        0.87261
B          5.91807        1.68657       -0.74744
B          6.11505       -0.02684       -0.80109
B          5.91919       -1.75704       -0.79535
B         -0.37325        0.36421        1.43886
