45
isomer_0767.log	Energy: -113448.1284925
B          2.44351        1.75422       -0.44062
B          2.38335        3.44295        0.05248
B          0.99865        4.20009        0.16661
B         -0.40302        3.41231       -0.47812
B          1.15330        0.90191       -0.92807
B         -1.76471        0.84761       -0.97258
B         -1.82046        4.16090        0.22556
B          3.84483        1.04412       -0.14246
B         -1.82400        2.52288       -0.54535
B          3.71760        2.64212        0.23545
B         -0.43760        4.77029        0.37144
B         -3.15319        3.25967        0.19824
B         -3.19085        1.67334       -0.31515
B         -4.54452        0.72825        0.12996
B         -0.16063       -1.75866       -0.92837
B         -1.57824       -2.50823       -0.35620
B         -3.02844       -1.76058       -0.24638
B         -4.47374       -0.93337        0.10256
B         -4.21427       -2.49984        0.76150
B         -2.85645       -3.34838        0.30294
B         -1.50232       -4.14449        0.28239
B         -0.07187       -3.36537       -0.58961
B         -0.09119       -4.61996        0.46508
B          2.60358       -3.16549       -0.02105
B          1.30445       -3.98536        0.19593
B          2.57330       -1.55544       -0.57667
B          3.93665       -2.27930        0.15336
B          3.94333       -0.70809       -0.21030
B          1.38768       -2.64794       -1.31729
B          1.08387        2.63224       -0.66969
B         -3.26418       -0.04641       -0.65134
B          1.23225       -0.76691       -0.90208
B         -4.44341        2.39068        0.64514
B          5.06301        1.85417        0.77451
B          5.10543        0.21963        0.44389
B          5.22662       -1.44665        0.66667
B          6.23709       -0.51202        1.37642
B          6.16008        0.98287        1.43142
B         -1.66682       -0.81771       -0.79975
B          1.11531       -2.18928        0.35202
B         -0.37483        1.85475       -1.08510
B         -5.49847        1.44435        1.20375
B         -5.59551       -0.09384        1.25590
B         -5.29129       -1.62508        1.32022
B         -0.26385        0.03907       -0.93727
