45
isomer_0768.log	Energy: -110824.0518297
B          2.66157        1.70000       -0.42534
B          2.65993        3.34032       -0.05525
B          1.25676        4.17696        0.18551
B         -0.20421        3.34663       -0.35646
B          1.19828        0.81155       -0.72252
B         -1.67650        0.85101       -0.80191
B         -1.59014        4.14135        0.33053
B          4.11721        0.82106       -0.34955
B         -1.59026        2.45843       -0.25128
B          4.06473        2.51601        0.09701
B         -0.16260        4.80060        0.46285
B         -3.02507        3.29967        0.35318
B         -3.05866        1.67491       -0.20330
B         -4.52023        0.87049        0.30147
B         -0.25166       -1.71078       -0.85584
B         -1.63537       -2.39701       -0.22245
B         -3.08896       -1.58584       -0.18394
B         -4.53527       -0.74845        0.31109
B         -4.38163       -2.30612        0.56519
B         -3.08550       -3.20422        0.39179
B         -1.66646       -4.07262        0.37930
B         -0.26608       -3.31200       -0.31692
B         -0.25140       -4.75666        0.51959
B          2.59772       -3.35533       -0.01549
B          1.17928       -4.16283        0.23503
B          2.62980       -1.71983       -0.40503
B          4.01761       -2.55551        0.12712
B          4.10152       -0.86725       -0.33953
B          1.19172       -2.53172       -0.55970
B          1.23880        2.53658       -0.58979
B         -3.15708        0.14296       -0.59066
B          1.18323       -0.80794       -0.71291
B         -4.33764        2.42793        0.53708
B          5.38257        1.70198        0.60296
B          5.36402        0.06955        0.37874
B          5.35041       -1.76015        0.62352
B          6.52588       -0.81268        1.21754
B          6.54030        0.73995        1.20832
B         -1.69179       -0.79492       -0.79214
B         -0.28107        0.94027       -0.39203
B         -0.21961        1.73913       -0.87633
B         -5.85231        1.73224        0.75874
B         -6.06313        0.02130        0.83434
B         -5.88142       -1.71038        0.84977
B         -0.78728       -1.68862       -1.25229
