45
isomer_0769.log	Energy: -112549.1972964
B          2.60724       -1.65763        0.39856
B          2.60256       -3.29224        0.00404
B          1.19775       -4.12327       -0.24635
B         -0.26098       -3.29912        0.31091
B          1.14579       -0.77171        0.71193
B         -1.72887       -0.80841        0.79653
B         -1.64939       -4.08160       -0.38506
B          4.06395       -0.77965        0.33296
B         -1.64599       -2.40755        0.22179
B          4.00821       -2.46767       -0.13874
B         -0.22304       -4.74076       -0.53009
B         -3.08318       -3.23771       -0.39224
B         -3.11338       -1.62139        0.18849
B         -4.57483       -0.80752       -0.30127
B         -0.30035        1.75033        0.88581
B         -1.68436        2.44783        0.26552
B         -3.13915        1.63932        0.21785
B         -4.58762        0.81140       -0.28669
B         -4.43231        2.37247       -0.51783
B         -3.13458        3.26611       -0.33367
B         -1.71430        4.13228       -0.31108
B         -0.31360        3.35943        0.37088
B         -0.29857        4.81640       -0.44401
B          2.54965        3.40333        0.06434
B          1.13184        4.21643       -0.17124
B          2.58022        1.76217        0.42936
B          3.96813        2.60379       -0.09306
B          4.05061        0.90864        0.34817
B          1.14359        2.57363        0.59904
B          1.18364       -2.49462        0.55339
B         -3.20889       -0.09526        0.59886
B          1.13299        0.84776        0.72652
B         -4.39490       -2.36152       -0.56047
B          5.32617       -1.64798       -0.63515
B          5.31036       -0.01906       -0.38655
B          5.29881        1.81410       -0.60397
B          6.47177        0.87400       -1.21444
B          6.48404       -0.67862       -1.22842
B         -1.74188        0.83750        0.81135
B          1.00760       -0.45942       -0.57051
B         -0.27308       -1.69954        0.85474
B         -5.90902       -1.66052       -0.76865
B         -6.11760        0.05164       -0.81829
B         -5.93350        1.78311       -0.80824
B          0.19845       -1.05890        2.05499
