45
isomer_0770.log	Energy: -113434.6914559
B          2.60308        1.63246       -0.67709
B          2.51935        3.23896       -0.05926
B          1.16610        4.11658        0.04625
B         -0.30884        3.37823       -0.49356
B          1.13031        0.83934       -1.03494
B         -1.56546        0.74967       -0.09530
B         -1.64077        4.14560        0.34748
B          4.01969        0.80044       -0.41960
B         -1.70042        2.50646       -0.27535
B          3.87836        2.36348        0.14688
B         -0.22704        4.71996        0.36855
B         -3.05055        3.30271        0.37277
B         -3.07111        1.69304        0.06064
B         -4.53940        0.82512        0.01457
B         -0.25452       -1.63891       -0.62467
B         -1.68569       -2.49225       -0.51763
B         -3.12136       -1.75470       -0.40559
B         -4.40354       -0.83314        0.26219
B         -4.42588       -2.53137        0.45546
B         -3.01021       -3.30032        0.11332
B         -1.62469       -4.18789        0.11485
B         -0.24285       -3.26402       -0.19728
B         -0.20917       -4.77247        0.26602
B          2.59495       -3.26347        0.08193
B          1.21496       -4.10324        0.17839
B          2.66823       -1.58079       -0.35857
B          3.99441       -2.41872        0.25371
B          4.10050       -0.87444       -0.41005
B          1.27461       -2.45433       -0.32819
B          1.21155        2.55831       -0.68046
B         -3.13102        0.00842       -0.47063
B          1.21021       -0.69447       -0.59447
B         -4.42294        2.46934        0.70996
B          5.15213        1.65699        0.67846
B          5.31197        0.00508        0.33753
B          5.28784       -1.67208        0.69104
B          6.39188       -0.71900        1.29518
B          6.30365        0.76809        1.33164
B         -1.69180       -0.75565       -1.08224
B         -0.17754       -0.04155        0.15633
B         -0.35449        1.73503       -0.93845
B         -5.51450        1.48265        1.07549
B         -5.74385       -0.07671        0.98057
B         -5.58956       -1.64429        0.90413
B         -0.32658        0.07785       -1.58000
