45
isomer_0771.log	Energy: -113441.9660339
B          2.47370       -1.74184        0.39401
B          2.65911       -3.19405       -0.79741
B          1.38183       -4.10431       -0.81187
B          0.07410       -3.24242        0.39355
B          1.28501       -0.63299        1.02402
B         -1.68433       -0.78784        1.00662
B         -1.38325       -3.97979       -0.24354
B          3.68386       -0.64623       -0.00644
B         -1.55431       -2.48749        0.56654
B          3.73670       -2.13649       -0.65244
B         -0.05305       -4.50017       -0.66265
B         -2.83173       -3.27162       -0.16901
B         -3.02596       -1.74250        0.31649
B         -4.41254       -0.90524       -0.21383
B         -0.39820        1.88208        0.97139
B         -1.84619        2.55173        0.45785
B         -3.21259        1.68006        0.16043
B         -4.64435        0.73000        0.04786
B         -4.49775        2.36496       -0.69061
B         -3.19140        3.24818       -0.35274
B         -1.83092        4.13236       -0.42264
B         -0.43891        3.42754        0.33923
B         -0.45161        4.75297       -0.56062
B          2.37645        3.45118       -0.11015
B          0.98245        4.21765       -0.27776
B          2.45276        1.82268        0.46917
B          3.80002        2.69004       -0.15750
B          3.73140        1.01709       -0.01246
B          1.09064        2.68664        0.57332
B          1.81807       -3.42181        0.59084
B         -3.25495       -0.02620        0.65288
B          1.14846        0.95903        1.03547
B         -4.26770       -2.56197       -0.59658
B          5.16295       -1.31824       -0.68410
B          5.17702        0.23489       -0.08035
B          5.12980        1.93338       -0.50891
B          6.24565        1.00700       -1.06331
B          6.36883       -0.47501       -1.00253
B         -1.77413        0.86208        0.72179
B          1.16893       -2.28477        1.41929
B         -0.27832       -1.65380        1.30369
B         -5.44887       -1.75292       -1.08290
B         -5.69725       -0.20984       -1.10412
B         -5.52032        1.33088       -1.14507
B         -0.24912        0.09512        0.96511
