45
isomer_0772.log	Energy: -113384.8892510
B         -2.63667        1.54333        0.54274
B         -2.67070        3.22431       -0.23842
B         -1.33540        3.97903       -0.45117
B          0.14562        3.37485        0.33171
B         -1.27076        0.79467        0.84834
B          1.68208        0.88061        0.74775
B          1.52195        4.06138       -0.57084
B         -4.04706        0.83542        0.31315
B          1.58822        2.49799        0.15912
B         -3.96732        2.37154       -0.23202
B          0.08334        4.51484       -0.79705
B          2.92814        3.31727       -0.44224
B          3.04987        1.76958        0.17495
B          4.54784        0.94767        0.12538
B          0.32611       -2.11042        1.18693
B          1.72054       -2.45244        0.22209
B          3.12045       -1.62500        0.26744
B          4.46624       -0.68561       -0.12166
B          4.50981       -2.33165       -0.57003
B          3.09410       -3.12672       -0.43449
B          1.70646       -3.87349       -0.76768
B          0.31730       -3.41914        0.17862
B          0.28428       -4.31170       -1.13467
B         -2.47817       -3.18600       -0.35766
B         -1.13724       -3.89501       -0.69538
B         -2.49768       -1.57691        0.60930
B         -3.75761       -2.34360       -0.31196
B         -3.96549       -0.89294        0.32986
B         -1.13927       -2.45148        0.23773
B         -1.29862        2.41806        0.28351
B          3.19298        0.05765        0.68105
B         -1.07899       -0.91917        1.06200
B          4.33331        2.51932       -0.65140
B         -5.33455        1.56489       -0.54344
B         -5.35921       -0.06023       -0.06923
B         -5.21666       -1.65779       -0.58308
B         -6.37325       -0.83718       -1.13626
B         -6.39985        0.63838       -1.14553
B          1.63311       -0.82931        1.00122
B          0.30653       -1.06567        2.27566
B          0.19987        1.82499        0.93335
B          5.46603        1.59207       -1.02406
B          5.79601        0.09503       -0.90917
B          5.69006       -1.44264       -0.86098
B          0.25426        0.27122        1.53651
