45
isomer_0773.log	Energy: -113763.9256398
B         -3.00470       -0.74617       -1.77233
B         -3.62574       -2.01967       -0.81490
B         -2.49749       -2.92648        0.08725
B         -0.81915       -2.90511       -0.57917
B         -1.35705       -0.33721       -1.06160
B          1.39209       -0.99304       -1.28531
B          0.17503       -3.85971        0.42748
B         -2.79586        0.82673       -1.42636
B          0.86131       -2.54902       -0.60923
B         -3.95891       -0.39163       -0.41732
B         -1.30881       -3.91051        0.55623
B          1.77767       -3.48305        0.40459
B          2.37198       -2.10701       -0.26011
B          3.87208       -1.55604        0.31493
B          0.51585        1.92929       -1.18254
B          2.06217        2.30095       -0.69176
B          3.26225        1.18868       -0.38195
B          4.45762       -0.03249       -0.06368
B          4.52746        1.60136        0.64663
B          3.44420        2.70985        0.24903
B          2.26309        3.78587        0.37599
B          0.78725        3.36988       -0.40677
B          0.99198        4.54168        0.67298
B         -1.98393        3.59537        0.38417
B         -0.52541        4.20922        0.45463
B         -2.43397        2.21610       -0.64563
B         -3.08841        2.59005        0.93660
B         -3.65118        1.19601        0.16045
B         -0.83864        2.81350       -0.46067
B         -1.92161       -1.98861       -1.48225
B          3.02398       -0.55186       -0.77284
B         -1.07584        1.29367       -1.26518
B          3.30826       -3.09764        0.85373
B         -3.62802       -1.88902        0.94793
B         -3.41785       -0.14424        1.23143
B         -3.64597        1.47844        1.87659
B         -4.01926        0.21681        2.72224
B         -4.02022       -1.20536        2.34002
B          1.77433        0.64398       -1.07194
B         -2.32911       -1.08120        0.12265
B         -0.20789       -1.64523       -1.57962
B          4.63138       -2.55407        1.32449
B          5.19656       -1.11117        1.28659
B          5.28640        0.41822        1.23950
B          0.17210        0.15986       -1.38496
