45
isomer_0775.log	Energy: -113488.1893609
B         -2.58355       -1.66459       -0.60286
B         -2.54441       -3.27318       -0.04767
B         -1.12624       -4.11389       -0.03115
B          0.34897       -3.42033       -1.13838
B         -1.27462       -0.77486       -1.04195
B          1.66681       -0.74379       -0.82761
B          1.63302       -4.06816        0.00577
B         -3.90133       -0.75530       -0.22124
B          1.48696       -2.32492        0.04806
B         -3.82037       -2.39998        0.15881
B          0.27369       -4.74931       -0.03197
B          2.99512       -3.16563        0.28819
B          3.05154       -1.63156       -0.13946
B          4.35926       -0.64153        0.42407
B          0.23122        1.81170       -1.02906
B          1.65312        2.60914       -0.51299
B          3.05358        1.81724       -0.17160
B          4.50627        0.97251        0.02578
B          4.31347        2.62783        0.65002
B          2.93432        3.41796        0.24681
B          1.54054        4.21669        0.21941
B          0.16569        3.40186       -0.53063
B          0.10968        4.77954        0.27934
B         -2.65254        3.33472       -0.19552
B         -1.26684        4.17837       -0.01483
B         -2.67731        1.69185       -0.67991
B         -3.95806        2.50622        0.12710
B         -4.08397        0.88004       -0.35964
B         -1.29744        2.52803       -0.69131
B         -1.13186       -2.52715       -0.65494
B          3.17141        0.11197       -0.50849
B         -1.27920        0.81303       -1.05372
B          4.30204       -2.33862        0.78301
B         -4.96391       -1.56640        0.98095
B         -4.71858        0.10294        0.94083
B         -5.18079        1.73244        0.74122
B         -6.10298        0.78201        1.52482
B         -5.92272       -0.70727        1.74432
B          1.63717        0.90815       -0.73262
B          0.12006       -3.02382        0.58241
B          0.30504       -1.75860       -1.12883
B          5.44814       -1.40430        1.26905
B          5.61872        0.13451        1.23753
B          5.36252        1.68504        1.18477
B          0.19838        0.00940       -1.11590
