45
isomer_0777.log	Energy: -113503.4970898
B          2.41382        1.97282       -0.68900
B          2.34089        3.54022       -0.05901
B          0.89929        4.33788       -0.01232
B         -0.47225        3.60213       -0.71981
B          1.04875        1.14021       -1.32191
B         -1.46267        0.90103       -0.70771
B         -1.90756        4.18923        0.09594
B          3.66472        1.02697       -0.03421
B         -1.83875        2.59562       -0.69013
B          3.59637        2.69445        0.36155
B         -0.52561        4.84358        0.27459
B         -3.19569        3.25791        0.07890
B         -3.03846        1.62166       -0.20865
B         -4.28684        0.64992        0.30143
B         -0.36369       -1.87257       -1.69664
B         -1.16062       -2.47248       -0.09803
B         -2.62048       -1.73028        0.00038
B         -4.04937       -0.99274        0.42313
B         -3.84839       -2.58346        0.94595
B         -2.51516       -3.34940        0.36764
B         -1.34343       -4.29571        0.08070
B          0.19159       -3.36750       -0.57468
B         -0.03319       -5.01603       -0.13189
B          2.00258       -3.17934       -0.38544
B          1.33038       -4.56726       -0.35546
B          2.11714       -1.50763       -0.55717
B          3.32071       -2.27431        0.34835
B          3.52193       -0.69787       -0.07259
B          1.14173       -2.32232       -1.67014
B          1.03658        2.84081       -0.85493
B         -2.84365       -0.08196       -0.36370
B          0.70102       -0.54294       -1.17097
B         -4.36536        2.33404        0.70320
B          4.68016        1.78104        1.11862
B          4.71731        0.09568        0.84769
B          4.49449       -1.62814        1.09551
B          5.49590       -0.74605        1.96870
B          5.57709        0.75561        1.99015
B         -1.09599       -0.75118       -0.72485
B          2.31417        0.26951       -0.83385
B         -0.38939        1.95334       -1.24854
B         -5.29868        1.30288        1.34716
B         -5.34600       -0.24098        1.39099
B         -5.00036       -1.76102        1.45862
B          0.39501       -1.72536       -0.01758
