45
isomer_0078.log	Energy: -113458.7321707
B          2.56971       -1.60844        0.43765
B          2.52434       -3.31331       -0.05378
B          1.22544       -4.12421        0.18163
B         -0.23029       -3.32823        0.93509
B          1.21617       -0.73942        0.82678
B         -1.58111       -0.75310        0.51862
B         -1.55688       -4.14073       -0.00868
B          3.89830       -0.85614        0.10917
B         -1.41182       -2.41315        0.04819
B          3.80691       -2.45418       -0.31050
B         -0.18184       -4.71584        0.07316
B         -2.87626       -3.28693       -0.29882
B         -3.00317       -1.71942        0.11376
B         -4.46400       -0.86687       -0.10394
B         -0.32638        1.81912        1.20831
B         -1.70917        2.56918        0.47326
B         -3.08878        1.74735        0.22487
B         -4.36060        0.78810       -0.39584
B         -4.33523        2.46502       -0.76414
B         -3.01499        3.32219       -0.27048
B         -1.64674        4.15815       -0.20311
B         -0.27336        3.43666        0.64862
B         -0.22262        4.70656       -0.32164
B          2.53924        3.38259        0.05301
B          1.19048        4.14647       -0.02507
B          2.54921        1.66336        0.63327
B          3.80003        2.51320       -0.20031
B          3.90501        0.91024        0.15597
B          1.20132        2.57825        0.74555
B          1.08745       -2.40595        0.24785
B         -3.15182        0.00015        0.50452
B          1.20156        0.93761        1.06391
B         -4.21125       -2.50252       -0.75902
B          5.12346       -1.61014       -0.86260
B          5.15629        0.03603       -0.44142
B          5.09347        1.68860       -0.76840
B          6.12877        0.79610       -1.51586
B          6.13684       -0.70035       -1.54802
B         -1.74990        0.92437        0.98600
B         -0.24731        0.00379        1.24347
B         -0.28697       -1.73392        1.45670
B         -5.31557       -1.56248       -1.25899
B         -5.57590       -0.04007       -1.26677
B         -5.42897        1.53639       -1.27642
B         -0.10310       -1.25406       -0.23553
