45
isomer_0780.log	Energy: -112773.9609887
B          2.64131       -1.58088        0.40661
B          2.56652       -3.23065        0.01405
B          1.14067       -4.07091       -0.22595
B         -0.31408       -3.27638        0.31590
B          1.15531       -0.67326        0.71991
B         -1.76789       -0.77278        0.80088
B         -1.68732       -4.04547       -0.38023
B          4.03846       -0.72253        0.33801
B         -1.72005       -2.39422        0.21611
B          3.98622       -2.38236       -0.13358
B         -0.27312       -4.66175       -0.50736
B         -3.11800       -3.20105       -0.39669
B         -3.15125       -1.60040        0.18325
B         -4.60379       -0.75732       -0.29393
B         -0.29654        1.75249        0.88966
B         -1.68627        2.46666        0.26879
B         -3.14433        1.67068        0.21654
B         -4.58733        0.85361       -0.27864
B         -4.44495        2.42368       -0.52651
B         -3.10027        3.27964       -0.32681
B         -1.68081        4.12835       -0.30852
B         -0.30223        3.36406        0.36625
B         -0.27384        4.76686       -0.43259
B          2.52959        3.38326        0.05395
B          1.13753        4.18893       -0.17209
B          2.58277        1.74864        0.43256
B          3.94616        2.56869       -0.10393
B          4.02431        0.93882        0.34573
B          1.15646        2.56582        0.59737
B          1.15658       -2.46141        0.57837
B         -3.23365       -0.04329        0.59479
B          1.13129        0.86609        0.73568
B         -4.47433       -2.33713       -0.57929
B          5.27946       -1.58534       -0.62655
B          5.26329        0.04386       -0.37845
B          5.24445        1.82242       -0.60172
B          6.37775        0.90351       -1.20513
B          6.42027       -0.60060       -1.22915
B         -1.75652        0.85964        0.81757
B          1.52203       -1.51953       -0.72138
B         -0.34875       -1.66544        0.85728
B         -5.88042       -1.54189       -0.76062
B         -6.05219        0.10403       -0.79553
B         -5.85885        1.73168       -0.78102
B          0.45638       -1.30684        2.01636
