45
isomer_0781.log	Energy: -113419.3001854
B         -2.72736       -1.27555       -1.07994
B         -2.87499       -3.24783        0.05113
B         -1.54606       -3.98238        0.28510
B         -0.11357       -3.22790       -0.18717
B         -1.09763       -0.60499       -1.00064
B          1.61212       -0.86786       -0.79018
B          1.21577       -4.05742        0.55139
B         -3.96241       -0.40944       -0.35893
B          1.43854       -2.49928       -0.21055
B         -3.99827       -2.10594       -0.11699
B         -0.19315       -4.62067        0.60389
B          2.68091       -3.36748        0.50645
B          2.90598       -1.83801       -0.03845
B          4.42745       -1.11933        0.25535
B          0.56955        1.76518       -0.95308
B          2.08026        2.43150       -0.53881
B          3.44617        1.48363       -0.45218
B          4.76720        0.47986       -0.13543
B          4.75120        2.08688        0.46487
B          3.49175        3.06222        0.09194
B          2.22125        4.02323        0.20138
B          0.71789        3.43406       -0.51916
B          0.87309        4.70523        0.45883
B         -2.05775        3.52397        0.18377
B         -0.56589        4.23238        0.27202
B         -2.31354        2.06582       -0.52577
B         -3.45020        2.82602        0.45582
B         -3.85998        1.31737       -0.26527
B         -0.78020        2.71680       -0.56846
B         -1.40229       -2.42371       -0.90317
B          3.21745       -0.22684       -0.58860
B         -0.93118        1.01337       -0.98604
B          4.15494       -2.72033        0.79283
B         -4.98112       -1.24333        0.80708
B         -4.88618        0.45232        0.68944
B         -4.77407        2.09831        1.02352
B         -5.80865        1.19288        1.78676
B         -5.82271       -0.31610        1.75961
B          1.83892        0.72927       -0.81953
B         -2.99962       -2.73850       -1.44752
B          0.12954       -1.69746       -0.95706
B          5.46838       -1.99077        1.10121
B          5.82653       -0.47989        1.02394
B          5.72907        1.05493        1.02668
B         -2.41716        0.36579       -0.95011
