45
isomer_0783.log	Energy: -113382.2127568
B         -2.68147       -1.72458       -0.53041
B         -2.66618       -3.16996        0.32104
B         -1.27017       -3.92553        0.73087
B          0.09138       -3.23702        0.07951
B         -1.20089       -0.93906       -1.03907
B          2.45379       -0.42230       -1.80443
B          1.55657       -3.83061        0.73475
B         -4.04895       -0.79194       -0.18360
B          1.56173       -2.49440       -0.35626
B         -4.04001       -2.35940        0.36912
B          0.14527       -4.40422        1.12488
B          2.89694       -3.02785        0.33072
B          3.03790       -1.56280       -0.61189
B          4.50028       -0.79926        0.05919
B          0.45048        1.53319       -0.72456
B          1.82947        2.41994       -0.29584
B          3.35190        1.80681       -0.20078
B          4.80522        0.87798        0.04587
B          4.43235        2.36962        0.95583
B          3.11208        3.20628        0.56939
B          1.71017        4.01137        0.54133
B          0.37841        3.21198       -0.17490
B          0.30320        4.60075        0.62326
B         -2.45419        3.30700       -0.07018
B         -1.07458        4.06425        0.19502
B         -2.52668        1.69652       -0.56222
B         -3.88015        2.55033        0.08181
B         -3.98388        0.92459       -0.29952
B         -1.05150        2.35680       -0.34230
B         -1.33936       -2.66457       -0.56308
B          3.56896        0.24951       -0.88551
B         -1.07313        0.72142       -0.75553
B          4.35353       -2.41764        0.41848
B         -5.36587       -1.51578        0.64822
B         -5.40214        0.13095        0.15959
B         -5.25877        1.84440        0.46481
B         -6.42425        0.99058        1.06744
B         -6.48109       -0.51294        1.15643
B          1.95069        0.92245       -1.08770
B         -2.57245       -0.02986       -0.82684
B          0.09659       -2.02806       -1.14002
B          5.57101       -1.68322        0.88060
B          5.73650       -0.15200        1.14147
B          5.46688        1.33182        1.41930
B          1.43440       -1.43555       -1.66429
