45
isomer_0784.log	Energy: -112462.8796880
B          2.62176       -1.64438        0.33123
B          2.61900       -3.27409       -0.08306
B          1.21497       -4.10513       -0.33777
B         -0.24323       -3.29102        0.23537
B          1.15970       -0.76556        0.66127
B         -1.71450       -0.80963        0.75713
B         -1.63280       -4.06808       -0.46437
B          4.07629       -0.76245        0.27034
B         -1.63052       -2.40150        0.16272
B          4.02226       -2.44476       -0.22156
B         -0.20563       -4.72228       -0.62319
B         -3.06843       -3.22734       -0.45548
B         -3.09974       -1.61825        0.14492
B         -4.56494       -0.80174       -0.32897
B         -0.29116        1.75099        0.87160
B         -1.67921        2.45289        0.26546
B         -3.13243        1.64180        0.21392
B         -4.58117        0.81686       -0.29472
B         -4.43018        2.38095       -0.50755
B         -3.13364        3.27516       -0.31785
B         -1.71516        4.14413       -0.29055
B         -0.31000        3.36618        0.37627
B         -0.30146        4.83294       -0.42095
B          2.55186        3.42012        0.05863
B          1.13135        4.23288       -0.16130
B          2.58748        1.77472        0.40360
B          3.97141        2.62568       -0.11424
B          4.05936        0.92550        0.30607
B          1.14980        2.58089        0.58895
B          1.20062       -2.48633        0.48170
B         -3.19686       -0.09742        0.57416
B          1.14346        0.85359        0.69554
B         -4.38271       -2.35208       -0.60772
B          5.33641       -1.61620       -0.71336
B          5.31809        0.00955       -0.44497
B          5.30169        1.84519       -0.64010
B          6.47416        0.91514       -1.26669
B          6.48973       -0.63716       -1.29955
B         -1.73101        0.83594        0.79196
B          0.69402       -1.77968        2.67047
B         -0.25657       -1.69819        0.79860
B         -5.89919       -1.65196       -0.80122
B         -6.11167        0.06021       -0.82924
B         -5.93127        1.79183       -0.79896
B          0.12001       -0.27792        0.36342
