45
isomer_0785.log	Energy: -113474.1088021
B         -2.54908       -1.63243       -0.55707
B         -2.85055       -3.14796        0.58957
B         -1.53440       -4.00827        0.65126
B         -0.17060       -3.22491       -0.39916
B         -1.01032       -0.61109       -1.03390
B          1.70174       -0.82495       -0.91875
B          1.25680       -3.97734        0.36660
B         -3.84412       -0.57645       -0.16728
B          1.48200       -2.47819       -0.39944
B         -3.95080       -2.12190        0.38743
B         -0.11313       -4.45590        0.68211
B          2.73094       -3.33387        0.31341
B          2.96783       -1.80388       -0.17666
B          4.46185       -1.05869        0.19598
B          0.56373        1.77069       -0.90979
B          2.05147        2.46080       -0.46502
B          3.41579        1.55245       -0.34052
B          4.76179        0.57317       -0.09239
B          4.72196        2.18894        0.57392
B          3.43760        3.13228        0.20146
B          2.13814        4.05669        0.28755
B          0.66380        3.42302       -0.42581
B          0.76740        4.72713        0.49501
B         -2.13732        3.50829        0.17284
B         -0.66923        4.24688        0.25492
B         -2.30311        1.97788       -0.42655
B         -3.58134        2.81587        0.31941
B         -3.72526        1.14757       -0.01451
B         -0.83307        2.67961       -0.52941
B         -1.99387       -3.29762       -0.76768
B          3.28911       -0.14621       -0.65673
B         -0.95017        0.99201       -0.92773
B          4.18693       -2.67617        0.68634
B         -5.29897       -1.23171        0.52850
B         -5.22451        0.43237        0.14919
B         -4.93852        2.06463        0.72457
B         -6.11094        1.17445        1.28253
B         -6.36393       -0.29213        1.08337
B          1.85364        0.78366       -0.79647
B         -2.36344        0.19572       -0.53424
B          0.30396       -1.60638       -1.20247
B          5.45289       -1.92088        1.09326
B          5.78826       -0.40391        1.07051
B          5.68122        1.13922        1.09894
B         -1.16219       -2.21251       -1.46708
