45
isomer_0788.log	Energy: -113458.2567325
B          2.64354       -1.53855        0.56720
B          2.62303       -3.24355       -0.00849
B          1.32163       -4.06084        0.05469
B         -0.19759       -3.32403        0.78104
B          1.22153       -0.75500        0.92269
B         -1.67665       -0.91966        0.97211
B         -1.46745       -4.09855       -0.23374
B          3.98412       -0.78023        0.27817
B         -1.34397       -2.35038       -0.15273
B          3.90237       -2.35410       -0.18845
B         -0.07751       -4.64430       -0.18108
B         -2.80227       -3.27336       -0.45560
B         -2.97199       -1.80209        0.18533
B         -4.32303       -0.87284       -0.36200
B         -0.32522        1.78437        0.96792
B         -1.80260        2.54597        0.60279
B         -3.15225        1.67652        0.28853
B         -4.54951        0.73682        0.00474
B         -4.45162        2.41815       -0.53508
B         -3.11857        3.28304       -0.16047
B         -1.76581        4.13495       -0.21234
B         -0.33236        3.36830        0.39679
B         -0.35413        4.72193       -0.41987
B          2.46908        3.41480       -0.09141
B          1.09053        4.15999       -0.19722
B          2.55515        1.73131        0.65962
B          3.74077        2.56380       -0.27001
B          3.93579        0.98922        0.21673
B          1.14628        2.50970        0.41902
B          1.19162       -2.38521        0.38357
B         -3.18234       -0.08166        0.58993
B          1.22437        0.93835        1.04481
B         -4.16584       -2.51401       -0.85694
B          5.22802       -1.53278       -0.69776
B          5.21877        0.13023       -0.32896
B          5.06060        1.74117       -0.78656
B          6.12010        0.83928       -1.49526
B          6.22434       -0.64476       -1.40951
B         -1.74121        0.85462        0.85853
B         -0.25043        0.00500        1.08462
B         -0.29145       -1.81359        1.48203
B         -5.36096       -1.63990       -1.27449
B         -5.61086       -0.10880       -1.18320
B         -5.47527        1.45110       -1.08125
B         -0.11073       -1.26040       -0.17848
