45
isomer_0789.log	Energy: -113516.8967043
B          2.14397        1.77790        0.05445
B          1.99729        3.45080        0.48969
B          0.59110        4.16380        0.39034
B         -0.73817        3.26837       -0.28477
B          0.90399        0.87342       -0.69409
B         -1.84716        0.60836       -0.81817
B         -2.23751        3.95221        0.11368
B          3.62934        1.08364        0.40140
B         -2.07006        2.26305       -0.49150
B          3.45136        2.75146        0.62899
B         -0.91697        4.66870        0.40901
B         -3.53907        2.99742       -0.10439
B         -3.45072        1.39874       -0.48776
B         -4.82092        0.38447       -0.40814
B         -0.26947       -1.71369       -1.13650
B         -1.44803       -2.44642       -0.11791
B         -3.00284       -1.92560       -0.17227
B         -4.50992       -1.17406        0.07598
B         -4.15390       -2.64591        0.90277
B         -2.64765       -3.24784        0.73134
B         -1.12643       -3.77940        0.91166
B          0.03956       -3.18430       -0.25171
B          0.35703       -3.89587        1.15783
B          2.90389       -3.06679       -0.46762
B          1.67246       -3.31228        0.54035
B          2.73646       -1.46871       -1.31501
B          4.19645       -2.18440       -0.51681
B          3.76096       -0.62623       -0.17994
B          1.34285       -2.43739       -1.00028
B          0.82701        2.62520       -0.36826
B         -3.33944       -0.33065       -0.82861
B          1.17636       -0.74950       -1.05730
B         -4.85404        2.09281        0.14459
B          4.90075        2.03986        0.83171
B          5.10656        0.38161        0.27655
B          5.44239       -1.26246       -0.09004
B          6.53096       -0.25260        0.47442
B          6.29241        1.20040        0.92820
B         -1.70957       -0.99799       -1.00504
B          2.29859       -1.62660        0.41197
B         -0.56575        1.60488       -0.77365
B         -5.86890        1.07540        0.60023
B         -5.87889       -0.44800        0.81896
B         -5.46431       -1.91169        1.11885
B          2.15795        0.02587        0.15675
