45
isomer_0079.log	Energy: -113674.2768817
B         -2.49211       -1.76278       -0.47938
B         -2.41142       -3.34403        0.03594
B         -1.02979       -4.15914        0.13219
B          0.37125       -3.38155       -0.49186
B          0.33482       -0.00124       -1.05078
B          1.79979       -0.82630       -0.91071
B          1.76843       -4.13820        0.26193
B         -3.95234       -0.93025       -0.22064
B          1.82167       -2.53429       -0.50562
B         -3.79362       -2.54989        0.29704
B          0.36496       -4.74439        0.36905
B          3.10814       -3.26521        0.29011
B          3.15663       -1.65999       -0.18967
B          4.55121       -0.77528        0.20664
B          0.30122        1.83152       -1.06310
B          1.68605        2.55412       -0.36601
B          3.10253        1.74618       -0.14586
B          4.55692        0.91662        0.08018
B          4.32756        2.51184        0.76638
B          2.98035        3.35458        0.32235
B          1.60684        4.17757        0.29548
B          0.24705        3.41465       -0.54075
B          0.18075        4.75429        0.35614
B         -2.54661        3.30565        0.01306
B         -1.19317        4.15047        0.09545
B         -2.57319        1.71712       -0.53429
B         -3.89094        2.47336        0.25526
B         -3.99539        0.82963       -0.23886
B         -1.20541        2.57788       -0.79755
B         -1.10451       -2.59949       -0.75819
B          3.27779        0.02902       -0.59227
B         -1.17905        0.85300       -1.06727
B          4.44212       -2.42819        0.72848
B         -5.05267       -1.76227        0.85747
B         -5.19941       -0.06953        0.50996
B         -5.12318        1.62864        0.82297
B         -6.12460        0.67656        1.58057
B         -6.08947       -0.84274        1.59611
B          1.69562        0.84778       -0.72339
B         -1.12412       -0.85272       -1.01682
B          0.38358       -1.82826       -1.12524
B          5.54881       -1.50271        1.20704
B          5.67992        0.05333        1.21786
B          5.40004        1.57914        1.27264
B         -2.61306       -0.02450       -0.75206
