45
isomer_0791.log	Energy: -112182.5761918
B         -2.60519       -1.69277       -0.52639
B         -2.59763       -3.33237       -0.15323
B         -1.19151       -4.16315        0.09061
B          0.26684       -3.32822       -0.45135
B         -1.14500       -0.79925       -0.82368
B          1.72999       -0.82778       -0.89991
B          1.65508       -4.11630        0.23861
B         -4.06428       -0.81931       -0.45382
B          1.64934       -2.43449       -0.34635
B         -4.00575       -2.51320       -0.00402
B          0.22994       -4.78081        0.37064
B          3.08673       -3.26907        0.26122
B          3.11467       -1.64524       -0.29827
B          4.57258       -0.83424        0.20656
B          0.29536        1.72839       -0.96018
B          1.67573        2.42113       -0.32659
B          3.13239        1.61563       -0.28500
B          4.58138        0.78476        0.21315
B          4.42146        2.34229        0.46416
B          3.12208        3.23507        0.28769
B          1.69972        4.09797        0.27204
B          0.30302        3.33066       -0.42425
B          0.28188        4.77682        0.40954
B         -2.56124        3.36352       -0.12597
B         -1.14619        4.17695        0.12456
B         -2.58660        1.72719       -0.51247
B         -3.97819        2.55851        0.01662
B         -4.05510        0.86907       -0.44694
B         -1.15149        2.54432       -0.66712
B         -1.17903       -2.52417       -0.68776
B          3.20761       -0.11365       -0.68840
B         -1.13620        0.82030       -0.81708
B          4.39574       -2.39194        0.44489
B         -5.32727       -1.70330        0.49899
B         -5.31476       -0.07124        0.27172
B         -5.30845        1.75895        0.51309
B         -6.48091        0.80808        1.10762
B         -6.48934       -0.74461        1.10130
B          1.73893        0.81820       -0.89321
B         -0.59622       -0.49416        2.67879
B          0.27661       -1.72165       -0.97422
B          5.90747       -1.69000        0.66687
B          6.11162        0.02188        0.73948
B          5.92323        1.75287        0.75147
B         -0.45902        0.45835        0.03660
