45
isomer_0792.log	Energy: -113458.2566196
B          2.64318       -1.53929        0.56696
B          2.62290       -3.24424       -0.00728
B          1.32119       -4.06133        0.05525
B         -0.19823       -3.32390        0.78077
B          1.22217       -0.75445        0.92341
B         -1.67643       -0.91964        0.97177
B         -1.46754       -4.09846       -0.23400
B          3.98322       -0.78020        0.27595
B         -1.34384       -2.35000       -0.15334
B          3.90237       -2.35477       -0.18796
B         -0.07772       -4.64482       -0.18073
B         -2.80215       -3.27328       -0.45569
B         -2.97171       -1.80180        0.18515
B         -4.32235       -0.87273       -0.36296
B         -0.32539        1.78509        0.97029
B         -1.80250        2.54585        0.60252
B         -3.15193        1.67630        0.28794
B         -4.54933        0.73668        0.00391
B         -4.45117        2.41804       -0.53592
B         -3.11829        3.28269       -0.16099
B         -1.76556        4.13466       -0.21246
B         -0.33256        3.36909        0.39877
B         -0.35406        4.72123       -0.42044
B          2.46887        3.41445       -0.09165
B          1.09047        4.15952       -0.19777
B          2.55497        1.73092        0.65907
B          3.74062        2.56383       -0.27066
B          3.93525        0.98922        0.21574
B          1.14620        2.51120        0.42367
B          1.19181       -2.38566        0.38663
B         -3.18214       -0.08143        0.58959
B          1.22417        0.93881        1.04583
B         -4.16553       -2.51379       -0.85725
B          5.22733       -1.53294       -0.69885
B          5.21786        0.13023       -0.33054
B          5.06075        1.74143       -0.78707
B          6.12040        0.83970       -1.49562
B          6.22365       -0.64447       -1.41054
B         -1.74089        0.85476        0.85920
B         -0.11023       -1.26057       -0.17782
B         -0.29113       -1.81351        1.48244
B         -5.36065       -1.63986       -1.27500
B         -5.61067       -0.10874       -1.18364
B         -5.47534        1.45128       -1.08180
B         -0.25001        0.00493        1.08514
