45
isomer_0793.log	Energy: -112463.2861911
B          2.63123       -1.64991        0.36657
B          2.62211       -3.28241       -0.03649
B          1.21499       -4.10873       -0.28946
B         -0.24105       -3.28400        0.27392
B          1.17231       -0.76212        0.68640
B         -1.70232       -0.79234        0.77440
B         -1.63221       -4.05948       -0.42440
B          4.08997       -0.77511        0.30374
B         -1.62401       -2.38864        0.19120
B          4.02957       -2.46050       -0.17671
B         -0.20764       -4.72130       -0.57466
B         -3.06397       -3.21211       -0.42538
B         -3.08955       -1.59879        0.16384
B         -4.54963       -0.77885       -0.31983
B         -0.26751        1.76245        0.87527
B         -1.65060        2.46652        0.26037
B         -3.10740        1.66178        0.21029
B         -4.55849        0.84000       -0.29677
B         -4.39969        2.40188       -0.51993
B         -3.09958        3.29141       -0.33272
B         -1.67719        4.15403       -0.30738
B         -0.27751        3.37425        0.36878
B         -0.25998        4.83543       -0.43850
B          2.58545        3.41286        0.05890
B          1.16932        4.23059       -0.17065
B          2.61250        1.76974        0.41529
B          4.00180        2.61074       -0.10446
B          4.08073        0.91311        0.32779
B          1.17805        2.58376        0.59100
B          1.20580       -2.48426        0.51880
B         -3.18086       -0.07460        0.58231
B          1.16344        0.85728        0.70947
B         -4.37377       -2.33190       -0.58737
B          5.34890       -1.64140       -0.67048
B          5.33733       -0.01377       -0.41334
B          5.32994        1.82053       -0.62115
B          6.49986        0.88081       -1.23799
B          6.50836       -0.67173       -1.26011
B         -1.71134        0.85350        0.79785
B          0.18243       -1.31397        2.54915
B         -0.24862       -1.68727        0.82612
B         -5.88645       -1.62617       -0.79000
B         -6.09096        0.08672       -0.83041
B         -5.90266        1.81766       -0.81154
B         -0.16106       -0.90570       -0.21175
