45
isomer_0794.log	Energy: -113387.9087946
B         -2.57437       -1.69194       -0.63777
B         -2.63010       -3.25597        0.55881
B         -1.28714       -4.04544        0.67766
B          0.08224       -3.22206       -0.13459
B         -1.37670       -0.55322       -1.26787
B          1.62668       -0.80951       -0.98142
B          1.49544       -4.07402        0.33458
B         -3.80922       -0.76785       -0.10862
B          1.57765       -2.53459       -0.58341
B         -3.79685       -2.28656        0.47106
B          0.14826       -4.61478        0.69260
B          2.87704       -3.26530        0.19732
B          3.02044       -1.74375       -0.35084
B          4.38380       -0.88712        0.24732
B          0.38748        1.90050       -0.99705
B          1.81498        2.55686       -0.48205
B          3.16485        1.68369       -0.19735
B          4.57994        0.74885        0.03206
B          4.43230        2.37711        0.70486
B          3.14644        3.27258        0.32833
B          1.80921        4.15324        0.41147
B          0.41182        3.44592       -0.36165
B          0.41873        4.74935        0.56663
B         -2.39363        3.46680        0.09637
B         -1.02382        4.22336        0.23989
B         -2.45490        1.77367       -0.61323
B         -3.68840        2.63117        0.21323
B         -3.79293        1.00886       -0.16831
B         -1.09278        2.68232       -0.58926
B         -1.53854       -3.07681       -0.64389
B          3.21829       -0.04747       -0.61513
B         -1.13053        1.04371       -1.14403
B          4.26759       -2.53961        0.63509
B         -5.12468       -1.42246        0.81829
B         -5.10109        0.18984        0.32522
B         -5.03166        1.83519        0.67719
B         -6.11641        0.98123        1.36350
B         -6.17277       -0.49587        1.41111
B          1.71918        0.84421       -0.73611
B         -1.37330       -2.00683       -1.76873
B          0.14914       -1.77892       -1.10401
B          5.42317       -1.71262        1.14123
B          5.65050       -0.16200        1.16985
B          5.46475        1.37247        1.21384
B          0.23991        0.05377       -1.04220
