45
isomer_0795.log	Energy: -113391.5520417
B          2.59716        1.72639       -0.64008
B          2.55551        3.38106       -0.07701
B          1.21108        4.16331        0.10276
B         -0.23551        3.39099       -0.44695
B          1.25003        0.87517       -1.18610
B         -1.78077        0.92722       -1.08772
B         -1.57397        4.17825        0.28211
B          3.87944        0.94125       -0.05708
B         -1.69963        2.60023       -0.53533
B          3.88686        2.58143        0.12942
B         -0.15316        4.76960        0.35457
B         -2.92931        3.33327        0.33665
B         -3.08724        1.80871       -0.24829
B         -4.38444        0.89061        0.39962
B         -0.27410        0.11222       -1.26190
B         -1.73222       -2.41458       -0.48335
B         -3.15258       -1.64137       -0.26323
B         -4.56945       -0.74618        0.07182
B         -4.33251       -2.41791        0.68226
B         -3.03457       -3.24928        0.23756
B         -1.65639       -4.00863        0.24647
B         -0.24145       -3.18568       -0.37149
B         -0.20858       -4.58127        0.45674
B          2.38533       -3.17008        0.17609
B          1.18603       -4.07635        0.74710
B          2.48029       -1.50492       -0.55390
B          3.65155       -2.27093        0.39594
B          3.85231       -0.74538       -0.08613
B          1.21853       -2.46650       -1.08066
B          1.23593        2.56844       -0.75528
B         -3.24882        0.10376       -0.57029
B          1.18472       -0.79945       -1.31298
B         -4.27679        2.54228        0.82342
B          5.10306        1.78703        0.80754
B          5.17171        0.11682        0.41208
B          5.04057       -1.49630        0.89926
B          6.10242       -0.64123        1.55391
B          6.05158        0.85653        1.58970
B         -1.74249       -0.74811       -0.77435
B          1.16593       -4.05367       -0.82783
B         -0.27504        1.84964       -1.11291
B         -5.38064        1.65860        1.36609
B         -5.57721        0.08874        1.32646
B         -5.34691       -1.44472        1.27927
B         -0.31627       -1.58899       -0.94401
