45
isomer_0796.log	Energy: -113601.1660992
B         -2.74190       -1.46080       -0.93439
B         -2.95586       -3.07342       -0.47592
B         -1.72633       -3.73859        0.20287
B         -0.09373       -3.12661       -0.17501
B         -1.17008       -0.82297       -1.07006
B          1.69775       -1.19136       -1.11500
B          0.85995       -3.47456        1.20563
B         -4.08125       -0.48347       -0.62316
B          1.05599       -1.90575        0.41601
B         -4.23043       -2.15195       -0.36700
B         -0.54820       -4.05789        1.05400
B          2.32970       -2.85084        1.23472
B          2.81170       -1.89361        0.00521
B          4.43896       -1.21953        0.13124
B          0.60988        1.46554       -0.55202
B          2.10476        2.19127       -0.53255
B          3.47246        1.25742       -0.66558
B          4.83570        0.24566       -0.68073
B          4.90911        1.97360       -0.15865
B          3.58908        2.89984       -0.27254
B          2.34548        3.81631        0.16038
B          0.77672        3.13786       -0.10460
B          1.02819        4.49082        0.66688
B         -1.98604        3.29632        0.61263
B         -0.47190        3.97988        0.67557
B         -2.24902        1.79745       -0.13339
B         -3.49057        2.70155        0.63948
B         -3.81290        1.26942       -0.24264
B         -0.73957        2.39152        0.02829
B         -1.42581       -2.49267       -0.99893
B          3.29142       -0.45834       -0.89397
B         -0.91714        0.70780       -0.38571
B          3.85435       -2.45236        1.24045
B         -5.45137       -1.20893        0.10857
B         -5.26235        0.51105        0.06526
B         -4.91503        2.05804        0.82721
B         -6.20078        1.20794        1.16204
B         -6.46140       -0.23772        0.83288
B          1.88190        0.47980       -0.79475
B         -2.54414        0.25608       -0.81741
B          0.18420       -1.87485       -1.32304
B          5.31661       -1.88545        1.25636
B          5.85301       -0.55759        0.72189
B          5.89227        0.91579        0.29548
B          0.33663       -0.43169       -0.22602
