45
isomer_0799.log	Energy: -113434.6849762
B          2.66895       -1.57947        0.35800
B          2.59729       -3.26375       -0.07804
B          1.21714       -4.10442       -0.17492
B         -0.24115       -3.26359        0.19372
B          1.21172       -0.69256        0.59122
B         -1.69058       -0.75729        1.08013
B         -1.62299       -4.18960       -0.11278
B          4.10136       -0.87340        0.41096
B         -1.68366       -2.49234        0.51459
B          3.99649       -2.41937       -0.24968
B         -0.20685       -4.77454       -0.26070
B         -3.00920       -3.30254       -0.11246
B         -3.12043       -1.75635        0.40449
B         -4.40279       -0.83489       -0.26298
B         -0.35548        1.73585        0.93984
B         -1.70195        2.50657        0.27719
B         -3.07212        1.69202       -0.05965
B         -4.53970        0.82306       -0.01452
B         -4.42451        2.46859       -0.70828
B         -3.05241        3.30195       -0.37110
B         -1.64298        4.14560       -0.34547
B         -0.31056        3.37917        0.49520
B         -0.22952        4.72021       -0.36800
B          2.51726        3.23983        0.05832
B          1.16386        4.11739       -0.04615
B          2.60201        1.63325        0.67643
B          3.87645        2.36432       -0.14854
B          4.01896        0.80165        0.41922
B          1.21003        2.55956        0.68132
B          1.27591       -2.45390        0.32665
B         -3.13041        0.00698        0.46976
B          1.12963        0.84054        1.03506
B         -4.42483       -2.53318       -0.45572
B          5.28831       -1.67109       -0.68961
B          5.31131        0.00665       -0.33828
B          5.15083        1.65842       -0.67955
B          6.30244        0.76966       -1.33271
B          6.39114       -0.71743       -1.29559
B         -1.56569        0.75042        0.09549
B         -0.32680        0.07751        1.57831
B         -0.25293       -1.63766        0.61699
B         -5.58874       -1.64604       -0.90440
B         -5.74361       -0.07839       -0.98033
B         -5.51477        1.48097       -1.07517
B         -0.17644       -0.03836       -0.15830
