45
isomer_0008.log	Energy: -112737.8772150
B         -2.67415       -1.66012       -0.46238
B         -2.64808       -3.30405       -0.06872
B         -1.23784       -4.15092        0.16155
B          0.21827       -3.38825       -0.39442
B         -1.33774       -0.71491       -0.77273
B          1.72664       -0.77655       -0.85725
B          1.59795       -4.14605        0.32923
B         -4.02905       -0.81892       -0.38185
B          1.67216       -2.50984       -0.27765
B         -3.96358       -2.47156        0.06744
B          0.15838       -4.71765        0.43426
B          3.03980       -3.29946        0.33800
B          3.11430       -1.67170       -0.24140
B          4.55531       -0.80446        0.21551
B          0.21987        1.69906       -0.97586
B          1.62922        2.42683       -0.33480
B          3.08197        1.64191       -0.29197
B          4.53367        0.83191        0.19616
B          4.40085        2.41244        0.46399
B          3.01172        3.24945        0.25561
B          1.58586        4.07991        0.23930
B          0.21127        3.30527       -0.43441
B          0.18141        4.65848        0.35305
B         -2.61445        3.27873       -0.10186
B         -1.21491        4.08639        0.10740
B         -2.65139        1.65629       -0.48886
B         -3.95982        2.45060        0.04782
B         -4.02850        0.85740       -0.39025
B         -1.25284        2.48501       -0.65636
B         -1.27887       -2.55881       -0.62607
B          3.18813       -0.06995       -0.66823
B         -1.24533        0.77604       -0.80182
B          4.45616       -2.41293        0.53173
B         -5.24376       -1.64515        0.56469
B         -5.22555       -0.03902        0.32056
B         -5.23560        1.66706        0.54380
B         -6.30307        0.80891        1.14006
B         -6.34640       -0.69993        1.16793
B          1.70690        0.83694       -0.88368
B          0.27944        1.03224        1.65505
B          0.24665       -1.82811       -0.99039
B          5.79142       -1.54946        0.67302
B          5.94482        0.06920        0.69520
B          5.75697        1.64034        0.68492
B          0.18180       -0.71262       -0.08528
