45
isomer_0802.log	Energy: -113476.3036721
B         -2.59885       -1.69759       -0.65696
B         -2.51671       -3.11341        0.38816
B         -1.16215       -3.86778        0.46926
B          0.10535       -3.32468       -0.58558
B         -1.29887       -0.72138       -0.73716
B          1.65788       -0.76331       -0.71650
B          1.61515       -4.14307        0.15346
B         -3.97313       -0.82020       -0.28741
B          1.62883       -2.49531       -0.34267
B         -3.87657       -2.29547        0.35239
B          0.25672       -4.53192        0.55472
B          2.98880       -3.32837        0.10011
B          3.08298       -1.71628       -0.34237
B          4.56402       -0.88508       -0.13907
B          0.36194        1.86851       -1.05730
B          1.78712        2.54905       -0.47985
B          3.16616        1.72869       -0.23535
B          4.50520        0.75845        0.21460
B          4.44252        2.43041        0.70933
B          3.10225        3.27470        0.32750
B          1.74171        4.14772        0.38162
B          0.35340        3.38719       -0.35523
B          0.34709        4.71291        0.54534
B         -2.45300        3.35048        0.06344
B         -1.07455        4.12444        0.26315
B         -2.50142        1.68671       -0.54104
B         -3.79720        2.53603        0.14030
B         -3.90562        0.94565       -0.24754
B         -1.13721        2.62296       -0.64096
B         -1.35829       -2.74742       -1.10138
B          3.25605        0.02563       -0.66332
B         -1.15667        0.91513       -1.00988
B          4.35244       -2.49049        0.49755
B         -5.25000       -1.49879        0.63416
B         -5.25735        0.12240        0.14033
B         -5.17519        1.75895        0.56889
B         -6.28101        0.90690        1.19801
B         -6.32266       -0.56807        1.22879
B          1.78628        0.88301       -0.95999
B         -1.12921       -2.04433        0.48942
B          0.16992       -1.61134       -0.53925
B          5.41759       -1.57331        1.04464
B          5.72113       -0.05686        1.08114
B          5.56957        1.49089        1.13861
B          0.24557        0.06766       -1.04609
