45
isomer_0803.log	Energy: -113468.0504184
B          2.31901        1.94535       -0.61954
B          2.17004        3.53915        0.05799
B          0.77895        4.26916        0.24180
B         -0.61306        3.46346       -0.41595
B          1.03533        1.15327       -1.27676
B         -1.89484        0.85926       -1.03585
B         -1.99762        4.04173        0.47196
B          3.68874        1.12920       -0.18325
B         -1.97524        2.51179       -0.44272
B          3.52629        2.72791        0.25605
B         -0.64097        4.73270        0.58776
B         -3.26757        3.05491        0.49486
B         -3.24119        1.52383       -0.13449
B         -4.47211        0.44107        0.38574
B         -0.21801       -1.61767       -1.30308
B         -1.36944       -2.48922       -0.51248
B         -2.89918       -1.85097       -0.25984
B         -4.44083       -1.18939       -0.01461
B         -3.98784       -2.81068        0.62977
B         -2.58081       -3.41544        0.16091
B         -1.07712       -4.01072        0.19771
B          0.34421       -3.11754       -0.48714
B          0.27089       -4.47314        0.47623
B          3.06289       -3.43220        0.83356
B          1.72599       -4.09785        0.68709
B          2.61785       -1.22779       -0.99713
B          3.62676       -2.09592        0.31738
B          3.88337       -0.59078       -0.32982
B          1.32201       -2.06500       -1.47349
B          0.92031        2.81252       -0.77301
B         -3.25205       -0.17716       -0.63938
B          1.20681       -0.41152       -1.45024
B         -4.49650        2.07487        0.93754
B          4.77998        1.96441        0.88930
B          5.03246        0.36534        0.41746
B          4.95152       -1.28339        0.82623
B          5.90834       -0.41082        1.61492
B          5.77810        1.06918        1.67970
B         -1.62759       -0.81856       -0.93998
B          2.16262       -2.84213       -0.34047
B         -0.55323        1.98953       -1.19124
B         -5.51743        1.04578        1.41548
B         -5.53511       -0.50603        1.31440
B         -5.11411       -1.98812        1.21716
B         -0.34062        0.20763       -1.29052
