45
isomer_0804.log	Energy: -112549.8550744
B          2.61744       -1.63521        0.38135
B          2.61607       -3.26696       -0.02483
B          1.21284       -4.09976       -0.27820
B         -0.24679       -3.28333        0.28797
B          1.15441       -0.75527        0.70409
B         -1.71996       -0.79990        0.79443
B         -1.63468       -4.06435       -0.41067
B          4.07178       -0.75307        0.31898
B         -1.63424       -2.39467        0.20811
B          4.01932       -2.43782       -0.16465
B         -0.20698       -4.71883       -0.56338
B         -3.07062       -3.22410       -0.40883
B         -3.10369       -1.61205        0.18349
B         -4.56822       -0.79843       -0.29740
B         -0.29774        1.76178        0.89899
B         -1.68482        2.46016        0.28659
B         -3.13766        1.64830        0.23619
B         -4.58509        0.82031       -0.27123
B         -4.43421        2.38338       -0.49154
B         -3.13837        3.27899       -0.30371
B         -1.72024        4.14859       -0.27791
B         -0.31615        3.37447        0.39559
B         -0.30653        4.83725       -0.40891
B          2.54632        3.42785        0.08339
B          1.12597        4.23900       -0.14341
B          2.58182        1.78421        0.43662
B          3.96649        2.63307       -0.08268
B          4.05419        0.93503        0.34626
B          1.14349        2.59077        0.61509
B          1.19629       -2.47690        0.53317
B         -3.20219       -0.08913        0.60495
B          1.13754        0.86402        0.73026
B         -4.38490       -2.35008       -0.56806
B          5.33415       -1.61125       -0.65795
B          5.31474        0.01581       -0.39769
B          5.29809        1.85044       -0.60199
B          6.47213        0.91771       -1.22160
B          6.48830       -0.63473       -1.24670
B         -1.73711        0.84582        0.82103
B          0.58630       -2.13974        1.74043
B         -0.26180       -1.68771        0.84323
B         -5.90123       -1.65147       -0.76807
B         -6.11425        0.06047       -0.80504
B         -5.93451        1.79228       -0.78302
B          0.40431       -0.18494       -0.27275
