45
isomer_0807.log	Energy: -113323.0739220
B         -2.51442       -1.64167       -0.41001
B         -2.63422       -3.35036       -0.17409
B         -1.14315       -4.10990        0.05310
B          0.27385       -3.31654       -0.35510
B         -1.06353       -0.83907       -0.76131
B          1.71948       -0.75632       -0.94633
B          1.67905       -4.13589        0.38005
B         -3.90781       -0.75297       -0.34792
B          1.63368       -2.40637       -0.29170
B         -3.94691       -2.42443        0.05712
B          0.30962       -4.73426        0.43042
B          2.98439       -3.21822        0.35569
B          3.08130       -1.67637       -0.21320
B          4.50541       -0.82587        0.17845
B          0.36410        1.73774       -0.93038
B          1.77794        2.50316       -0.36771
B          3.19923        1.70928       -0.30083
B          4.59590        0.82095        0.07396
B          4.54058        2.45950        0.53438
B          3.13491        3.25103        0.26308
B          1.77070        4.13469        0.31028
B          0.38253        3.42056       -0.41659
B          0.36976        4.75909        0.44029
B         -2.48267        3.43246        0.00866
B         -1.05120        4.19971        0.14701
B         -2.47563        1.79911       -0.38697
B         -3.85087        2.61702        0.26382
B         -3.91506        0.96153       -0.28976
B         -1.12065        2.65956       -0.58219
B         -1.28204       -2.67180       -0.76837
B          3.22592        0.00946       -0.61008
B         -1.09700        0.91140       -0.84767
B          4.41706       -2.45776        0.59040
B         -5.17089       -1.61606        0.64277
B         -5.12951        0.09564        0.45814
B         -5.11022        1.79716        0.71092
B         -6.26573        0.84026        1.28372
B         -6.27587       -0.67179        1.25868
B          1.74529        0.86419       -0.89769
B         -2.46135        0.13978       -0.77043
B          0.37050       -1.62224       -1.08809
B          5.64109       -1.58957        0.94433
B          5.86202       -0.03018        0.92338
B          5.70089        1.53860        0.93546
B         -0.38643       -1.81423        0.51233
