45
isomer_0808.log	Energy: -113417.4049913
B          2.51908       -1.68947        0.41658
B          2.43862       -3.34564       -0.13029
B          1.05067       -4.15247       -0.18933
B         -0.35316       -3.36960        0.39050
B          1.16069       -0.83716        0.84625
B         -1.72864       -0.75346        1.09986
B         -1.76303       -4.12769       -0.19508
B          3.88637       -0.92749        0.08910
B         -1.77849       -2.46741        0.50599
B          3.80898       -2.52420       -0.25369
B         -0.38263       -4.76766       -0.35797
B         -3.08996       -3.19081       -0.20440
B         -3.14455       -1.63608        0.36569
B         -4.43483       -0.70612       -0.23947
B         -0.25472        1.75683        1.05084
B         -1.54015        2.53588        0.20276
B         -2.96979        1.75912        0.07036
B         -4.44644        0.95830       -0.06480
B         -4.23698        2.56373       -0.75503
B         -2.89280        3.38284       -0.30947
B         -1.48798        4.17107       -0.29409
B         -0.16457        3.40224        0.62277
B         -0.05161        4.67789       -0.35363
B          2.65331        3.29352        0.01464
B          1.33874        4.10221       -0.02241
B          2.61715        1.56712        0.61258
B          3.90038        2.38344       -0.21592
B          3.96602        0.81038        0.24165
B          1.29545        2.50037        0.63903
B          1.16083       -2.60567        0.58409
B         -3.13547        0.08821        0.56193
B          1.19722        0.79190        0.85410
B         -4.44953       -2.37761       -0.59992
B          5.14554       -1.72346       -0.77256
B          5.24875       -0.09553       -0.27745
B          5.24533        1.55967       -0.63928
B          6.30444        0.67299       -1.29520
B          6.22736       -0.82309       -1.37917
B         -1.47513        0.76984        0.19311
B         -0.28721        0.09932        1.63024
B         -0.32241       -1.75214        0.96856
B         -5.54954       -1.45747       -1.07975
B         -5.65282        0.10877       -1.10566
B         -5.36250        1.64510       -1.16702
B         -0.20997       -0.27052       -0.05905
