45
isomer_0809.log	Energy: -113557.9301540
B          2.54441        1.69966       -0.65216
B          2.48433        3.36233       -0.35174
B          1.08302        4.14302       -0.16846
B         -0.34431        3.34638       -0.62400
B          1.04767        0.80149       -0.78632
B         -1.74053        0.79452       -0.75456
B         -1.72738        4.09807        0.16828
B          4.04996        0.84365       -0.52216
B         -1.78074        2.45268       -0.34685
B          3.80418        2.59725       -0.05959
B         -0.29511        4.71298        0.18860
B         -3.09540        3.27866        0.23314
B         -3.22990        1.67738       -0.29291
B         -4.62687        0.84549        0.08571
B         -0.37873       -1.64002       -0.94418
B         -1.78093       -2.45254       -0.34676
B         -3.23015       -1.67725       -0.29339
B         -4.62712       -0.84550        0.08505
B         -4.44725       -2.44637        0.69101
B         -3.09558       -3.27856        0.23314
B         -1.72792       -4.09834        0.16766
B         -0.34458       -3.34644       -0.62408
B         -0.29556       -4.71303        0.18854
B          2.48413       -3.36232       -0.35111
B          1.08267       -4.14311       -0.16855
B          2.54404       -1.69978       -0.65192
B          3.80387       -2.59734       -0.05923
B          4.04957       -0.84386       -0.52176
B          1.08920       -2.50791       -0.89091
B          1.08928        2.50772       -0.89132
B         -3.32928        0.00020       -0.64707
B          1.04741       -0.80155       -0.78586
B         -4.44690        2.44656        0.69170
B          4.72098        1.68439        0.86510
B          5.29669       -0.00025        0.35992
B          4.72090       -1.68463        0.86510
B          5.18759       -0.74815        1.96081
B          5.18753        0.74788        1.96080
B         -1.74047       -0.79436       -0.75422
B          3.68974        0.00013        1.11776
B         -0.37860        1.64006       -0.94472
B         -5.52731        1.52872        1.23359
B         -5.74080        0.00023        1.20778
B         -5.52700       -1.52815        1.23386
B          2.45124       -0.00001       -0.10372
