45
isomer_0081.log	Energy: -113382.9401495
B          2.61852       -1.60603        0.47407
B          2.58462       -3.42132        0.10774
B          1.17221       -4.25494       -0.03029
B         -0.31429       -3.45130        0.40698
B          1.31097       -0.83961        0.82552
B         -1.71847       -0.78151        0.83085
B         -1.71466       -4.27617       -0.27101
B          3.94887       -0.82976        0.33465
B         -1.73254       -2.55041        0.27032
B          3.89510       -2.60477       -0.11948
B         -0.29557       -4.85911       -0.36493
B         -3.09894       -3.35691       -0.28986
B         -3.15867       -1.73840        0.20370
B         -4.57029       -0.84243       -0.22087
B         -0.33822        1.80546        1.01653
B         -1.73293        2.55481        0.35052
B         -3.14668        1.73199        0.20919
B         -4.54124        0.81998       -0.24546
B         -4.51306        2.52617       -0.62949
B         -3.09129        3.32366       -0.32393
B         -1.70075        4.24429       -0.33285
B         -0.30713        3.48449        0.46547
B         -0.27897        4.82969       -0.43494
B          2.58650        3.42270        0.03658
B          1.19713        4.25397       -0.08981
B          2.59572        1.67115        0.46794
B          3.90855        2.52411       -0.23484
B          3.96632        0.86632        0.28359
B          1.18732        2.68902        0.68893
B          1.18937       -2.61899        0.62945
B         -3.21380        0.00083        0.53484
B          1.22791        0.93177        0.92063
B         -4.54810       -2.55253       -0.59713
B          5.16830       -1.73968       -0.67249
B          5.14569       -0.02773       -0.47655
B          5.16442        1.65285       -0.76889
B          6.25898        0.70425       -1.37856
B          6.24170       -0.86631       -1.33068
B         -1.72740        0.86292        0.89341
B          2.14972        0.14461       -0.19002
B         -0.25528       -1.73165        0.75684
B         -5.73339       -1.66564       -0.95108
B         -5.91385       -0.02675       -0.96946
B         -5.72615        1.58241       -1.00236
B         -0.14624        0.01453        1.21721
