45
isomer_0810.log	Energy: -113376.9190261
B          2.30073        1.90702       -0.35723
B          2.00047        3.43860        0.27796
B          0.53159        4.13895        0.22074
B         -0.73366        3.22918       -0.43934
B          0.97149        0.78403       -0.85206
B         -1.87550        0.61843       -0.77320
B         -2.25533        3.95690       -0.07368
B          3.84283        1.29295       -0.11951
B         -2.09426        2.28628       -0.66197
B          3.40218        2.78673        0.60228
B         -0.91847        4.66191        0.21750
B         -3.54779        3.01359       -0.19010
B         -3.46708        1.38533       -0.46228
B         -4.80669        0.38879       -0.20437
B         -0.22151       -1.61960       -1.02874
B         -1.35470       -2.41588       -0.00328
B         -2.94856       -1.89641        0.07918
B         -4.49126       -1.17461        0.32140
B         -4.00993       -2.59970        1.20190
B         -2.54677       -3.21302        0.94007
B         -1.06267       -3.87870        0.84774
B         -0.01013       -3.27123       -0.38219
B          0.40743       -4.27961        0.81743
B          2.78558       -2.87594       -0.52142
B          1.62985       -3.74521        0.06365
B          3.13760       -1.31307       -1.30384
B          4.05774       -2.04829        0.00970
B          4.11509       -0.39626       -0.33606
B          1.21725       -2.61540       -1.28101
B          0.78104        2.49640       -0.35445
B         -3.31618       -0.33798       -0.62895
B          1.28391       -0.78084       -1.27555
B         -4.83244        2.11563        0.22842
B          4.68343        2.07417        1.22800
B          5.12510        0.51027        0.65088
B          5.08338       -1.22790        0.86686
B          5.82611       -0.28495        1.87971
B          5.69015        1.19988        2.00680
B         -1.68492       -0.97642       -0.82706
B          2.56008        0.29383       -0.78922
B         -0.55653        1.53647       -0.80861
B         -5.78695        1.11409        0.83612
B         -5.78417       -0.41870        1.13226
B         -5.34155       -1.85044        1.47306
B          2.21401       -2.00926       -2.22753
