45
isomer_0811.log	Energy: -112099.9859238
B         -2.59211       -1.67145       -0.51495
B         -2.59020       -3.31071       -0.14024
B         -1.18712       -4.14509        0.10877
B          0.27519       -3.31465       -0.42941
B         -1.12857       -0.78219       -0.80849
B          1.74655       -0.81863       -0.87571
B          1.65911       -4.10587        0.26562
B         -4.04903       -0.79393       -0.44774
B          1.65979       -2.42459       -0.32091
B         -3.99654       -2.48756        0.00380
B          0.23176       -4.76636        0.39381
B          3.09299       -3.26252        0.29192
B          3.12711       -1.63930       -0.26898
B          4.58565       -0.83181        0.23965
B          0.31910        1.74139       -0.94283
B          1.69938        2.43095       -0.30557
B          3.15369        1.62153       -0.25868
B          4.59884        0.78717        0.24477
B          4.44240        2.34536        0.49384
B          3.14601        3.24151        0.31247
B          1.72607        4.10828        0.29158
B          0.32947        3.34413       -0.40837
B          0.30967        4.79112        0.42401
B         -2.53561        3.38508       -0.11908
B         -1.11913        4.19488        0.13512
B         -2.56423        1.74846       -0.50414
B         -3.95520        2.58407        0.01983
B         -4.03526        0.89441       -0.44241
B         -1.12642        2.56154       -0.65506
B         -1.16774       -2.50688       -0.67108
B          3.22545       -0.10833       -0.66024
B         -1.11537        0.83734       -0.80337
B          4.40381       -2.38879        0.47888
B         -5.31740       -1.67359        0.50193
B         -5.29973       -0.04178        0.27319
B         -5.28918        1.78861        0.51287
B         -6.46608        0.84149        1.10462
B         -6.47873       -0.71117        1.09971
B          1.75997        0.82733       -0.87050
B         -1.46982       -0.48773        2.23368
B          0.29098       -1.70860       -0.95373
B          5.91675       -1.69077        0.70493
B          6.12535        0.02061        0.77659
B          5.94165        1.75212        0.78639
B         -0.28326       -0.17509       -0.29648
