45
isomer_0812.log	Energy: -113443.4599871
B         -2.17950        2.00127        0.72327
B         -2.04089        3.56835        0.07847
B         -0.62894        4.32427       -0.11237
B          0.73885        3.53737        0.54788
B         -0.79266        1.33590        1.47171
B          1.56958        0.72372        0.91935
B          2.11797        3.94550       -0.42332
B         -3.45274        0.93531        0.16517
B          1.99383        2.38821        0.52909
B         -3.16099        2.61801       -0.43874
B          0.79619        4.69873       -0.54739
B          3.34107        2.93882       -0.33678
B          3.18721        1.37314        0.16598
B          4.42218        0.32270       -0.20977
B         -0.01737       -1.89145        1.32041
B          1.29033       -2.62034        0.38675
B          2.69771       -1.96474        0.13778
B          4.20462       -1.30935       -0.18714
B          3.87299       -2.85344       -0.82839
B          2.40945       -3.50499       -0.43279
B          0.95055       -4.18862       -0.46529
B         -0.20559       -3.38167        0.45393
B         -0.52076       -4.59553       -0.53442
B         -2.80854       -2.63302        0.38245
B         -1.79047       -3.85868       -0.01013
B         -3.06970       -0.80736        0.58649
B         -4.26272       -1.93667        0.11479
B         -4.60712       -0.34402        0.51773
B         -1.57281       -1.34141        0.94908
B         -0.78111        2.95531        1.04127
B          3.03508       -0.29830        0.53717
B         -1.90217        0.26788        1.01984
B          4.58127        1.95224       -0.72855
B         -3.88020        1.71927       -1.51846
B         -4.61858        0.36171       -0.93248
B         -5.31302       -1.21182       -0.82718
B         -5.53922       -0.37400       -2.10521
B         -4.73452        0.85052       -2.46419
B          1.36670       -0.91436        0.84599
B         -1.45446       -2.89229        1.36726
B          0.64562        2.07028        1.39765
B          5.56928        0.90865       -1.19080
B          5.52832       -0.62406       -1.21122
B          5.09130       -2.11509       -1.27227
B         -0.07604       -0.13595        1.11737
