45
isomer_0813.log	Energy: -112611.5297704
B          2.61183       -1.68700        0.42517
B          2.60221       -3.32712        0.05432
B          1.19482       -4.15794       -0.18184
B         -0.26084       -3.32195        0.36571
B          1.15322       -0.79276        0.72797
B         -1.72139       -0.82059        0.81756
B         -1.65242       -4.11071       -0.31672
B          4.07074       -0.81394        0.34462
B         -1.64364       -2.42808        0.26587
B          4.00980       -2.50844       -0.10254
B         -0.22805       -4.77569       -0.45442
B         -3.08399       -3.26320       -0.33387
B         -3.10901       -1.63859        0.22348
B         -4.56908       -0.82800       -0.27572
B         -0.28598        1.73537        0.86762
B         -1.66914        2.42751        0.23947
B         -3.12613        1.62226        0.20575
B         -4.57758        0.79100       -0.28453
B         -4.41852        2.34815       -0.53845
B         -3.11815        3.24089       -0.36924
B         -1.69556        4.10352       -0.36138
B         -0.29581        3.33689        0.32950
B         -0.27824        4.78189       -0.50639
B          2.56705        3.36874        0.01792
B          1.15102        4.18212       -0.22719
B          2.59387        1.73295        0.40657
B          3.98316        2.56324       -0.13012
B          4.06187        0.87443        0.33544
B          1.15965        2.55059        0.56673
B          1.18627       -2.51787        0.59429
B         -3.19983       -0.10644        0.61190
B          1.14471        0.82678        0.71916
B         -4.39366       -2.38605       -0.51271
B          5.32913       -1.69952       -0.61280
B          5.31801       -0.06714       -0.38774
B          5.31095        1.76272       -0.63162
B          6.48044        0.81077       -1.23026
B          6.48860       -0.74191       -1.22182
B         -1.73004        0.82539        0.80861
B          0.36105       -0.93117       -0.55323
B         -0.26787       -1.71466        0.88638
B         -5.90626       -1.68411       -0.72865
B         -6.11040        0.02771       -0.80270
B         -5.92172        1.75864       -0.81798
B          0.48493        0.65131        1.76790
