45
isomer_0814.log	Energy: -111591.3210153
B          2.57706        1.74442       -0.46312
B          2.56165        3.38232       -0.08281
B          1.15162        4.20502        0.16577
B         -0.30300        3.36521       -0.37867
B          1.12109        0.84494       -0.76313
B         -1.75406        0.85950       -0.83695
B         -1.69458        4.14336        0.31582
B          4.04053        0.87791       -0.39551
B         -1.68096        2.46416       -0.27646
B          3.97396        2.56952        0.06171
B         -0.27266        4.81437        0.44961
B         -3.12198        3.28892        0.33588
B         -3.14230        1.66742       -0.23066
B         -4.59575        0.84699        0.27180
B         -0.30679       -1.68922       -0.90949
B         -1.68318       -2.39157       -0.27783
B         -3.14379       -1.59352       -0.23158
B         -4.59649       -0.77205        0.27134
B         -4.42862       -2.32984        0.51544
B         -3.12496       -3.21536        0.33405
B         -1.69834       -4.07110        0.31351
B         -0.30605       -3.29382       -0.38055
B         -0.27704       -4.74348        0.44692
B          2.55858       -3.31373       -0.08470
B          1.14780       -4.13527        0.16341
B          2.57549       -1.67562       -0.46409
B          3.97163       -2.50230        0.06028
B          4.03976       -0.81050       -0.39599
B          1.14434       -2.49921       -0.62115
B          1.14666        2.56940       -0.61972
B         -3.22794        0.13710       -0.62738
B          1.12035       -0.77465       -0.76359
B         -4.42646        2.40449        0.51678
B          5.29989        1.76403        0.56013
B          5.29532        0.13293        0.32576
B          5.29831       -1.69831        0.55916
B          6.46650       -0.74420        1.15690
B          6.46721        0.80852        1.15733
B         -1.75482       -0.78653       -0.83742
B          1.77979       -0.58662        1.22576
B         -0.30521        1.76090       -0.90852
B         -5.93450        1.69408        0.73689
B         -6.13007       -0.01909        0.80221
B         -5.93307       -1.74916        0.80651
B          0.10506       -0.95037       -1.00365
