45
isomer_0815.log	Energy: -112608.1219027
B          2.60667       -1.66960        0.37324
B          2.60268       -3.30340       -0.02459
B          1.19800       -4.13610       -0.27013
B         -0.25939       -3.31536        0.29558
B          1.14532       -0.78659        0.69521
B         -1.72886       -0.82793        0.79310
B         -1.64981       -4.09858       -0.39552
B          4.06170       -0.78922        0.30266
B         -1.64617       -2.42577        0.21472
B          4.00637       -2.47637       -0.17222
B         -0.22314       -4.75523       -0.54852
B         -3.08493       -3.25691       -0.39432
B         -3.11492       -1.64183        0.18984
B         -4.57989       -0.82924       -0.29146
B         -0.30389        1.73284        0.88095
B         -1.69185        2.42945        0.26853
B         -3.14560        1.61877        0.22598
B         -4.59512        0.78963       -0.27352
B         -4.44329        2.35141       -0.50219
B         -3.14610        3.24668       -0.32225
B         -1.72708        4.11501       -0.30450
B         -0.32202        3.34296        0.36937
B         -0.31304        4.80161       -0.44262
B          2.53970        3.39194        0.04961
B          1.11955        4.20331       -0.17772
B          2.57450        1.75008        0.41114
B          3.95866        2.59493       -0.11602
B          4.04582        0.89901        0.32137
B          1.13742        2.55896        0.58914
B          1.18509       -2.50911        0.53298
B         -3.21088       -0.11669        0.60377
B          1.13009        0.83283        0.71315
B         -4.39876       -2.38243       -0.55465
B          5.32074       -1.65362       -0.67308
B          5.30357       -0.02524       -0.42109
B          5.28817        1.80835       -0.63472
B          6.45973        0.87131       -1.25255
B          6.47433       -0.68125       -1.26975
B         -1.74434        0.81792        0.81134
B          1.06683       -1.11780        2.12487
B         -0.27144       -1.71692        0.84272
B         -5.91492       -1.68336       -0.75437
B         -6.12637        0.02857       -0.79954
B         -5.94490        1.76030       -0.78682
B          0.36177        0.25269       -0.22713
