45
isomer_0817.log	Energy: -113435.9290790
B         -2.46163       -1.50886       -0.25153
B         -2.74041       -3.55931       -0.10079
B         -1.20684       -3.96175        0.27878
B          0.32470       -3.30015       -0.53970
B         -1.01212       -0.67455       -0.90693
B          1.79820       -0.77080       -0.86204
B          1.67613       -4.08308        0.16380
B         -3.95622       -0.73659       -0.41139
B          1.77707       -2.47306       -0.52301
B         -3.81511       -2.44524        0.24666
B          0.26031       -4.54673        0.45716
B          3.10691       -3.28252        0.10795
B          3.21368       -1.72205       -0.33976
B          4.61889       -0.82287        0.06287
B          0.42074        1.73369       -0.84384
B          1.84040        2.49709       -0.35555
B          3.28722        1.71167       -0.21304
B          4.73401        0.82568       -0.12561
B          4.57273        2.44202        0.60954
B          3.19902        3.25317        0.32581
B          1.80771        4.09901        0.42824
B          0.42613        3.38754       -0.28910
B          0.40766        4.70417        0.59408
B         -2.42680        3.40173        0.01034
B         -1.00739        4.15703        0.26336
B         -2.51397        1.85435       -0.55558
B         -3.87848        2.62890        0.09847
B         -3.94880        0.99807       -0.45118
B         -1.06476        2.60717       -0.53155
B         -0.95935       -2.27036       -0.18477
B          3.32003        0.03066       -0.64656
B         -1.01944        0.90474       -0.93182
B          4.49845       -2.49146        0.49470
B         -5.13328       -1.52610        0.59772
B         -5.24379        0.11903        0.17213
B         -5.18166        1.86972        0.49821
B         -6.24176        0.94197        1.15094
B         -6.23455       -0.57963        1.20804
B          1.77865        0.83601       -0.72711
B         -2.09613       -2.56762        0.94968
B          0.39410       -1.59406       -0.97538
B          5.67198       -1.61797        0.93430
B          5.87870       -0.06501        0.94862
B          5.66473        1.46479        1.01774
B         -2.53566        0.13156       -0.85294
