45
isomer_0818.log	Energy: -113360.2849429
B          2.78769        1.54214       -0.67614
B          2.77878        3.19210       -0.06914
B          1.50124        4.07499        0.08778
B         -0.02410        3.46223       -0.54457
B          1.29152        0.82608       -1.10930
B         -1.65911        1.06672       -0.95366
B         -1.31090        4.25949        0.28374
B          4.09476        0.68431       -0.33828
B         -1.52624        2.72690       -0.56657
B          4.02823        2.22189        0.27427
B          0.13280        4.72966        0.41593
B         -2.74215        3.50626        0.35541
B         -2.97442        1.98461       -0.20339
B         -4.41352        1.10251        0.17992
B         -0.39551       -1.53692       -1.74200
B         -1.72319       -2.28777       -0.85059
B         -2.91030       -1.49296       -0.16305
B         -4.16840       -0.52173        0.49335
B         -3.99183       -2.12536        1.01394
B         -2.58946       -2.95855        0.53299
B         -1.67449       -4.19102        1.04812
B         -1.27717       -3.89496       -0.46675
B         -0.40474       -4.80343        0.66433
B          1.90204       -3.03006        0.16132
B          0.51624       -3.87101       -0.13995
B          2.36925       -1.59489       -0.62401
B          3.32721       -2.37858        0.56088
B          3.81066       -0.95604       -0.12987
B          1.01779       -2.47945       -1.06266
B          1.41518        2.47965       -0.61729
B         -3.15374        0.27942       -0.58126
B          1.16062       -0.73872       -1.33253
B         -4.07690        2.74154        0.82511
B          5.25757        1.42451        0.83547
B          5.16629       -0.25651        0.57072
B          4.64305       -1.77802        1.15813
B          5.80182       -0.95762        1.87418
B          6.15659        0.46442        1.65691
B         -1.78638       -0.59449       -1.24180
B         -0.25018        0.13533       -1.43015
B         -0.15466        1.87028       -1.08331
B         -5.10055        1.80246        1.45165
B         -5.31189        0.28912        1.51217
B         -5.09276       -1.27612        1.55982
B         -0.44673       -3.14240       -1.58986
