45
isomer_0822.log	Energy: -113470.4924844
B         -2.56114        1.66081        0.61342
B         -2.57459        3.34146        0.05874
B         -1.20699        4.11637       -0.22864
B          0.25833        3.38543        0.32148
B         -1.16781        0.86433        0.86230
B          1.76464        0.92194        0.95913
B          1.61665        4.16641       -0.44744
B         -3.94460        0.88192        0.33357
B          1.70334        2.56214        0.38134
B         -3.90683        2.49952        0.03472
B          0.20250        4.71506       -0.56117
B          2.99977        3.32306       -0.40589
B          3.11696        1.79253        0.21072
B          4.47208        0.84591       -0.22495
B          0.22937       -1.62263        0.52821
B          1.70356       -2.46046        0.36419
B          3.13958       -1.66020        0.41627
B          4.58927       -0.78293        0.17396
B          4.42530       -2.40962       -0.42761
B          3.07701       -3.28298       -0.04788
B          1.72118       -4.12234       -0.11575
B          0.18959       -3.33507        0.59109
B          0.37415       -4.55558       -0.52813
B         -2.41809       -3.15024       -0.47429
B         -1.05645       -3.91403       -0.48606
B         -2.54926       -1.76129        0.59143
B         -3.79465       -2.34948       -0.44798
B         -3.93546       -0.89510        0.24887
B         -1.29226       -2.76626        1.06912
B         -1.20624        2.59627        0.64322
B          3.25883        0.09890        0.68748
B         -1.26604       -0.77275        0.69459
B          4.36359        2.50255       -0.76633
B         -5.24579        1.68681       -0.44795
B         -5.22979        0.02121       -0.16368
B         -5.17746       -1.56916       -0.72552
B         -6.27942       -0.64082       -1.27210
B         -6.30715        0.83028       -1.13731
B          1.68916       -0.73479        0.77067
B         -1.03129       -2.09076       -0.53673
B          0.31240        1.85502        0.99433
B          5.52241        1.58495       -1.15878
B          5.71651        0.04669       -1.06717
B          5.46531       -1.47727       -0.99335
B          0.23982        0.05420        1.11587
