45
isomer_0824.log	Energy: -113505.8344923
B          2.33429        1.87256       -0.28447
B          2.19900        3.43335        0.27764
B          0.72914        4.12795        0.37870
B         -0.61742        3.31270       -0.31399
B          1.00486        0.91515       -0.85920
B         -1.81064        0.69598       -0.81239
B         -2.09319        3.98828        0.25941
B          3.83416        1.15913       -0.17931
B         -1.98174        2.36788       -0.52837
B          3.62989        2.73091        0.43333
B         -0.73280        4.62138        0.57017
B         -3.41587        3.11751        0.03130
B         -3.39134        1.51824       -0.44996
B         -4.78621        0.56473       -0.29591
B         -0.22326       -1.71929       -1.08702
B         -1.58222       -2.49787       -0.28289
B         -3.01314       -1.78954       -0.17014
B         -4.48011       -1.02051        0.16235
B         -4.21658       -2.56761        0.84042
B         -2.75173       -3.29166        0.58940
B         -1.30357       -3.82355        0.75283
B         -0.01700       -3.18874       -0.29107
B          0.27542       -4.02489        1.03237
B          2.69852       -3.15190       -0.54159
B          1.53593       -3.91192        0.18220
B          2.51464       -1.49022       -0.39531
B          4.05574       -2.22225       -0.19989
B          3.94891       -0.58237       -0.37438
B          1.28725       -2.54520       -1.34933
B          0.90356        2.60338       -0.41769
B         -3.32056       -0.17082       -0.77452
B          1.07984       -0.76137       -0.89994
B         -4.71675        2.25709        0.32209
B          4.99913        1.98882        0.78641
B          5.09952        0.31437        0.45999
B          5.28049       -1.39935        0.36074
B          6.36558       -0.42732        1.05023
B          6.24182        1.07338        1.23289
B         -1.72448       -0.91439       -0.93891
B          2.49999        0.24473       -0.70542
B         -0.50843        1.65967       -0.86751
B         -5.73458        1.22594        0.82559
B         -5.83788       -0.28577        0.92623
B         -5.47974       -1.80353        1.12750
B          1.22158       -2.20305        0.41741
