45
isomer_0825.log	Energy: -112403.0654057
B         -2.57598        1.71480        0.38294
B         -2.55560        3.35487        0.01231
B         -1.14249        4.17858       -0.21439
B          0.30525        3.33522        0.34278
B         -1.12395        0.81319        0.69538
B          1.75010        0.82649        0.80414
B          1.70531        4.11698       -0.33028
B         -4.03871        0.84912        0.29258
B          1.68415        2.43438        0.25209
B         -3.96623        2.54332       -0.15402
B          0.28527        4.78915       -0.47742
B          3.13267        3.26226       -0.33796
B          3.14576        1.63751        0.21940
B          4.60502        0.81958       -0.27012
B          0.30150       -1.72219        0.84440
B          1.68530       -2.42127        0.22542
B          3.14653       -1.62339        0.20150
B          4.60540       -0.79944       -0.27901
B          4.44017       -2.35575       -0.53413
B          3.13421       -3.24193       -0.37367
B          1.70726       -4.09736       -0.37538
B          0.30683       -3.32371        0.30622
B          0.28754       -4.76855       -0.52990
B         -2.55401       -3.34108       -0.02446
B         -1.14051       -4.16159       -0.26019
B         -2.57517       -1.70519        0.36416
B         -3.96502       -2.52843       -0.18187
B         -4.03831       -0.83927        0.28331
B         -1.14620       -2.53008        0.53380
B         -1.14740        2.53845        0.56164
B          3.22625        0.10489        0.60829
B         -1.12357       -0.80638        0.68648
B          4.43905        2.37851       -0.50813
B         -5.28620        1.74110       -0.67313
B         -5.28482        0.10867       -0.44815
B         -5.28537       -1.72118       -0.69214
B         -6.44603       -0.76331       -1.29848
B         -6.44640        0.78939       -1.28996
B          1.75049       -0.81951        0.79510
B         -1.81770       -0.78079        2.16706
B          0.30068        1.72788        0.86334
B          5.94949        1.66895       -0.71405
B          6.14548       -0.04387       -0.78688
B          5.94816       -1.77383       -0.80357
B         -0.32821        0.43479        0.11498
