45
isomer_0828.log	Energy: -112544.1158590
B         -2.60477        1.69679        0.38520
B         -2.59738        3.33216       -0.00612
B         -1.19097        4.16291       -0.24836
B          0.26471        3.33689        0.31406
B         -1.14526        0.80947        0.70362
B          1.72900        0.84444        0.80164
B          1.65676        4.11996       -0.37393
B         -4.06162        0.81973        0.31112
B          1.64964        2.44474        0.22964
B         -4.00279        2.50864       -0.15703
B          0.23145        4.78018       -0.52430
B          3.09011        3.27531       -0.37610
B          3.11675        1.65785        0.20162
B          4.58002        0.84414       -0.28293
B          0.29870       -1.71369        0.87931
B          1.68521       -2.41074        0.26410
B          3.14064       -1.60292        0.22476
B          4.59188       -0.77482       -0.27144
B          4.43681       -2.33535       -0.50634
B          3.13776       -3.22864       -0.32994
B          1.71693       -4.09408       -0.31564
B          0.31348       -3.32180        0.36131
B          0.30146       -4.77717       -0.45648
B         -2.54833       -3.36354        0.04140
B         -1.12988       -4.17695       -0.18918
B         -2.57971       -1.72307        0.40947
B         -3.96563       -2.56293       -0.12104
B         -4.04926       -0.86859        0.32310
B         -1.14432       -2.53564        0.58423
B         -1.18145        2.53270        0.54826
B          3.20953        0.13087        0.60947
B         -1.13339       -0.81004        0.71512
B          4.40213        2.39874       -0.53993
B         -5.31887        1.69063       -0.66115
B         -5.30509        0.06122       -0.41565
B         -5.29351       -1.77152       -0.63658
B         -6.46311       -0.82959       -1.25066
B         -6.47448        0.72305       -1.26168
B          1.74105       -0.80150        0.81332
B         -1.15306        0.64934        1.94843
B          0.27343        1.73625        0.85482
B          5.91683        1.69732       -0.74245
B          6.12472       -0.01486       -0.79444
B          5.93964       -1.74624       -0.78863
B         -0.20577       -0.78963       -0.27400
