45
isomer_0829.log	Energy: -112129.5805109
B         -2.57710       -1.48403       -0.51868
B         -2.64027       -3.12495       -0.15675
B         -1.27153       -4.01564        0.08824
B          0.22335       -3.23909       -0.44085
B         -1.07920       -0.65065       -0.80269
B          1.79241       -0.79937       -0.86508
B          1.57372       -4.08936        0.25044
B         -3.99862       -0.55057       -0.44722
B          1.64157       -2.40492       -0.32297
B         -4.01354       -2.24838       -0.00879
B          0.12130       -4.69429        0.37095
B          3.03952       -3.30315        0.28586
B          3.13845       -1.67824       -0.26232
B          4.62648       -0.93256        0.25517
B          0.46663        1.81513       -0.91479
B          1.87156        2.44506       -0.26973
B          3.29290        1.57885       -0.22657
B          4.70317        0.68457        0.27292
B          4.60745        2.24574        0.53385
B          3.34759        3.19344        0.35717
B          1.96279        4.11539        0.34051
B          0.53875        3.41206       -0.36784
B          0.57400        4.85225        0.47574
B         -2.32312        3.56318       -0.08333
B         -0.87650        4.31479        0.17968
B         -2.41512        1.93197       -0.48118
B         -3.77332        2.81745        0.04682
B         -3.91864        1.13585       -0.42871
B         -0.94620        2.68913       -0.62321
B         -1.18628       -2.37349       -0.67878
B          3.29759       -0.14934       -0.64147
B         -1.00249        0.96702       -0.78493
B          4.38321       -2.48300        0.48194
B         -5.30249       -1.38707        0.49332
B         -5.22035        0.24450        0.27732
B         -5.13850        2.07117        0.53128
B         -6.35287        1.16643        1.11354
B         -6.42641       -0.38446        1.09652
B          1.87038        0.84470       -0.84704
B         -3.93787       -2.06940        0.92916
B          0.30322       -1.63091       -0.95262
B          5.92190       -1.84665        0.71610
B          6.19731       -0.14538        0.80147
B          6.08166        1.59187        0.82443
B         -1.17649       -1.99566        0.40313
