45
isomer_0083.log	Energy: -113369.0063042
B          2.65099       -1.77445        0.80773
B          2.56020       -3.22158       -0.59492
B          1.19586       -3.96751       -0.73804
B         -0.19375       -3.26930        0.09245
B          1.32446       -0.60481        1.19862
B         -1.63623       -0.80407        0.99115
B         -1.60284       -4.02568       -0.44549
B          3.89966       -0.84460        0.26426
B         -1.64441       -2.52212        0.60250
B          3.75495       -2.32588       -0.45894
B         -0.25257       -4.55966       -0.85578
B         -2.95877       -3.21482       -0.20299
B         -3.04960       -1.69502        0.34404
B         -4.42487       -0.81293       -0.17521
B         -0.35282        1.87275        0.92101
B         -1.75281        2.56736        0.33811
B         -3.13862        1.72099        0.20085
B         -4.59216        0.82362        0.04433
B         -4.40897        2.42974       -0.69328
B         -3.09107        3.29516       -0.38569
B         -1.72272        4.16024       -0.46348
B         -0.33497        3.42620        0.34812
B         -0.31753        4.72184       -0.59680
B          2.48795        3.38495       -0.07989
B          1.11860        4.15264       -0.28797
B          2.52447        1.69198        0.60893
B          3.79609        2.53409       -0.13227
B          3.92135        0.95043        0.34072
B          1.15679        2.60194        0.46544
B          1.34579       -2.72541        0.39196
B         -3.21793        0.00940        0.64409
B          1.14774        0.96158        1.01248
B         -4.36524       -2.46698       -0.56839
B          5.07583       -1.47934       -0.82088
B          5.14950        0.08611       -0.27971
B          5.13958        1.76186       -0.58239
B          6.15204        0.91517       -1.34034
B          6.10795       -0.54556       -1.47436
B         -1.71023        0.85894        0.73085
B          1.39955       -2.00844        1.85263
B         -0.16071       -1.84170        1.15764
B         -5.52903       -1.62241       -1.01305
B         -5.71729       -0.07033       -1.05698
B         -5.49039        1.44529       -1.12664
B         -0.24383        0.03034        1.01556
