45
isomer_0830.log	Energy: -113435.0581618
B         -2.46226       -1.66375       -0.50360
B         -2.60663       -3.23029        0.94859
B         -1.23259       -3.97099        0.93781
B         -0.04738       -3.21777       -0.37785
B         -1.25558       -0.61811       -1.12070
B          1.67308       -0.77372       -0.94485
B          1.50093       -3.97406        0.21595
B         -3.75223       -0.74616       -0.08150
B          1.59273       -2.46523       -0.56142
B         -3.70049       -2.23826        0.58193
B          0.18101       -4.41143        0.73247
B          2.91648       -3.27977        0.04884
B          3.08122       -1.70425       -0.40147
B          4.53353       -0.89897       -0.07033
B          0.37700        1.92179       -1.06336
B          1.79196        2.55213       -0.31114
B          3.14896        1.68592       -0.14152
B          4.52572        0.75520        0.19319
B          4.42110        2.35621        0.85135
B          3.09263        3.24262        0.47717
B          1.74297        4.11799        0.50276
B          0.35263        3.41913       -0.31096
B          0.33995        4.74166        0.59297
B         -2.43754        3.44360        0.03724
B         -1.06382        4.20489        0.25367
B         -2.45612        1.80320       -0.49138
B         -3.78073        2.61956        0.13448
B         -3.80144        0.98850       -0.15321
B         -1.11283        2.68637       -0.74577
B         -1.84034       -3.26093       -0.42821
B          3.27439        0.01863       -0.70076
B         -1.15927        0.96956       -1.05229
B          4.30849       -2.53076        0.48447
B         -5.11932       -1.45790        0.72622
B         -5.15551        0.13340        0.14521
B         -5.14781        1.78983        0.52026
B         -6.26304        0.91113        1.10138
B         -6.26059       -0.57225        1.18128
B          1.77033        0.91807       -0.88978
B         -1.15109       -2.26966       -1.43359
B          0.30638       -1.67047       -1.30782
B          5.42023       -1.67495        1.03371
B          5.67012       -0.15500        1.13531
B          5.51215        1.39027        1.27260
B          0.27262        0.11502       -1.01738
