45
isomer_0832.log	Energy: -111857.7370667
B          2.46975        1.78409       -0.52661
B          2.43983        3.42020       -0.13950
B          1.02326        4.22595        0.12678
B         -0.42733        3.37195       -0.40622
B          1.02099        0.86945       -0.81543
B         -1.85475        0.85186       -0.85988
B         -1.82038        4.13161        0.30558
B          3.94348        0.93389       -0.47745
B         -1.79396        2.45502       -0.29364
B          3.86258        2.62282       -0.01270
B         -0.40480        4.81807        0.42760
B         -3.23781        3.26105        0.33671
B         -3.24570        1.64168       -0.23619
B         -4.68462        0.80292        0.27771
B         -0.37975       -1.68006       -0.95754
B         -1.74162       -2.40038       -0.31474
B         -3.21056       -1.61905       -0.25036
B         -4.66717       -0.81601        0.27068
B         -4.47932       -2.37276        0.50671
B         -3.16771       -3.24280        0.30844
B         -1.73185       -4.08230        0.26988
B         -0.35556       -3.28663       -0.43516
B         -0.30179       -4.73913        0.38606
B          2.51199       -3.27540       -0.16861
B          1.11315       -4.11378        0.09053
B          2.50661       -1.63572       -0.54148
B          3.91724       -2.44867       -0.03474
B          3.96168       -0.75441       -0.48479
B          1.08326       -2.47477       -0.68730
B          1.02864        2.59350       -0.66527
B         -3.31820        0.11207       -0.63824
B          1.03844       -0.75004       -0.82247
B         -4.53034        2.36125        0.52729
B          5.20252        1.83037        0.46891
B          5.21388        0.20026        0.22796
B          5.23983       -1.63174        0.45386
B          6.40329       -0.66689        1.04354
B          6.38656        0.88573        1.05029
B         -1.83702       -0.79405       -0.86703
B          3.49448       -0.11506        1.88562
B         -0.41693        1.76983       -0.94254
B         -6.02798        1.63301        0.75987
B         -6.20361       -0.08250        0.82021
B         -5.98714       -1.81024        0.81546
B          1.96448       -1.78419        0.21819
