45
isomer_0833.log	Energy: -113539.8915446
B          3.18609        0.99239       -0.90244
B          3.52622        2.72915       -0.48533
B          2.35771        3.70518       -0.26247
B          0.72407        3.24147       -0.65235
B          1.70272        0.40621       -1.01406
B         -1.16248        1.09283       -0.67811
B         -0.39804        4.28747        0.22133
B          4.39333        0.12572       -0.53154
B         -0.80595        2.68572       -0.27241
B          4.67309        1.70878       -0.31932
B          1.10610        4.55706        0.14486
B         -1.91841        3.75930        0.41449
B         -2.33597        2.22708        0.00465
B         -3.87280        1.67423        0.47094
B         -0.76664       -1.60350       -1.64084
B         -1.93903       -2.13883       -0.22205
B         -3.23756       -1.06954       -0.19219
B         -4.44141        0.16468       -0.05192
B         -4.68599       -1.55236        0.46121
B         -3.54334       -2.65064        0.11080
B         -2.34049       -3.80359       -0.05977
B         -0.89506       -3.22592       -1.25431
B         -1.10702       -4.67908       -0.33357
B          0.85933       -2.87004        0.75162
B          0.36255       -4.14795       -0.37377
B          1.48339       -1.26324       -0.50661
B          2.29379       -2.16156        0.84972
B          3.11854       -1.02209        0.00724
B          0.70323       -2.62632       -1.05517
B          1.98744        2.10171       -0.88120
B         -2.84789        0.61875       -0.34396
B          0.09202       -0.23029       -1.13525
B         -3.44951        3.28348        0.85864
B          5.62418        0.59728        0.49737
B          4.76501       -0.88759        0.59492
B          3.72549       -1.92799        1.42145
B          5.06809       -1.50707        2.08660
B          5.93403       -0.38672        1.65325
B         -1.54701       -0.51854       -0.45100
B         -0.74396       -3.23958        0.67455
B          0.34084        1.59248       -1.02330
B         -4.80674        2.67213        1.24154
B         -5.37717        1.18964        1.09512
B         -5.54690       -0.36090        0.94772
B         -0.25786       -1.53941        0.13489
