45
isomer_0834.log	Energy: -113510.9145931
B         -2.56210       -1.73943       -0.90646
B         -2.34098       -3.03946        0.29940
B         -0.92716       -3.86212        0.38266
B          0.40454       -3.28764       -0.50294
B         -1.03017       -0.79306       -0.96557
B          1.80937       -0.75528       -0.80129
B          1.84727       -4.00872        0.20053
B         -3.98191       -0.91909       -0.62805
B          1.87387       -2.42738       -0.55542
B         -3.84527       -2.63842        0.24988
B          0.43916       -4.50642        0.54615
B          3.22786       -3.22457        0.05900
B          3.33033       -1.65784       -0.44686
B          4.74318       -0.78018       -0.15957
B          0.36559        1.67556       -0.86262
B          1.73752        2.45686       -0.21680
B          3.20370        1.75625       -0.19195
B          4.56948        0.83410        0.23309
B          4.46824        2.47487        0.72296
B          3.05721        3.26650        0.41210
B          1.63823        4.09107        0.40062
B          0.32582        3.34653       -0.40597
B          0.22752        4.69318        0.41905
B         -2.52367        3.32770       -0.18972
B         -1.18331        4.10818        0.02889
B         -2.53372        1.62311       -0.47866
B         -3.89813        2.47965       -0.05410
B         -3.96133        0.82947       -0.55247
B         -1.14189        2.54492       -0.70319
B         -1.05896       -2.45542       -0.68091
B          3.32900        0.06308       -0.64380
B         -1.00933        0.80131       -0.72183
B          4.60348       -2.40760        0.43709
B         -4.84819       -1.62974        0.84286
B         -5.22075       -0.04545        0.17599
B         -5.14879        1.66857        0.48375
B         -6.13956        0.78747        1.24509
B         -5.90891       -0.65021        1.51219
B          1.76562        0.83818       -0.81924
B         -2.95531       -1.34490        0.82944
B          0.41674       -1.59837       -0.96370
B          5.66880       -1.47221        0.96622
B          5.89705        0.05853        0.99909
B          5.67913        1.59332        1.07788
B         -2.40927       -0.07492       -0.07280
