45
isomer_0835.log	Energy: -113675.8866725
B          2.56286        1.73085       -0.53029
B          2.51289        3.30394        0.03714
B          1.15585        4.14903        0.10944
B         -0.26952        3.40263       -0.53843
B          1.16995        0.85078       -1.06897
B         -1.71784        0.84323       -0.78815
B         -1.64282        4.16962        0.25816
B          3.98395        0.84592       -0.22463
B         -1.72511        2.55119       -0.43165
B          3.86906        2.48546        0.27624
B         -0.22073        4.74808        0.35280
B         -3.00925        3.34025        0.27806
B         -3.12934        1.73313       -0.22143
B         -4.54665        0.89335        0.14574
B         -0.36879       -1.82514       -1.11683
B         -1.80149       -2.53281       -0.48807
B         -3.17323       -1.68093       -0.26013
B         -4.53205       -0.79850        0.23742
B         -4.40627       -2.44482        0.74984
B         -3.09120       -3.28091        0.26664
B         -1.74724       -4.14446        0.24631
B         -0.35033       -3.38487       -0.51482
B         -0.34070       -4.74597        0.35155
B          2.42813       -3.33449        0.03978
B          1.04834       -4.15718        0.12267
B          2.50962       -1.75961       -0.48889
B          3.81026       -2.53674        0.29238
B          3.95674       -0.90993       -0.21596
B          1.11972       -2.58973       -0.76542
B          1.18545        2.57763       -0.78880
B         -3.29346        0.01564       -0.60897
B          1.13025       -0.84855       -1.04224
B         -4.32694        2.49929        0.77011
B          5.10372        1.65236        0.84604
B          5.19557       -0.04373        0.52283
B          5.06092       -1.73807        0.86443
B          6.08409       -0.81327        1.61311
B          6.10376        0.70742        1.60664
B         -1.78601       -0.83055       -0.91064
B          2.60981       -0.01571       -0.74612
B         -0.31309        1.83062       -1.08759
B         -5.37364        1.56922        1.33797
B         -5.61980        0.03288        1.30483
B         -5.47261       -1.51906        1.30194
B         -0.34282        0.00248       -1.09407
