45
isomer_0837.log	Energy: -113380.5948673
B         -1.99620       -1.45558       -0.06489
B         -2.52994       -3.14411       -0.47619
B         -1.41883       -4.25150       -0.57249
B          0.19179       -3.37733       -1.14105
B         -0.90403       -0.53652       -1.06536
B          1.18755       -0.66805       -0.69603
B          1.41155       -4.12197        0.01150
B         -3.35598       -0.61562        0.41816
B          1.29133       -2.38791       -0.15807
B         -3.58489       -2.19940        0.25158
B         -0.03047       -4.67563       -0.13044
B          2.64859       -3.26244        0.33484
B          2.77865       -1.62904       -0.09158
B          4.21081       -0.90069        0.28051
B          0.37056        1.86092       -1.27369
B          1.71867        2.57821       -0.58713
B          3.05085        1.72422       -0.21510
B          4.32068        0.75630        0.38421
B          4.25919        2.44001        0.78475
B          3.03618        3.31817        0.19935
B          1.71076        4.23262        0.03601
B          0.36850        3.55185       -0.83755
B          0.32767        4.88468        0.01695
B         -2.43266        3.56905       -0.25602
B         -1.09042        4.32674       -0.32605
B         -2.33664        1.81083       -0.45996
B         -3.59890        2.71436        0.26918
B         -3.47964        1.07946        0.34232
B         -1.10915        2.69128       -1.05539
B         -1.28799       -2.33328       -1.37976
B          2.99471       -0.01093       -0.45613
B         -1.09478        1.05502       -1.19446
B          3.97052       -2.46419        0.90768
B         -4.79289       -1.45334        0.97805
B         -4.56078        0.21553        1.18570
B         -4.87979        1.84794        0.91309
B         -6.02283        0.92530        1.39952
B         -5.98774       -0.56726        1.41627
B          1.63492        0.90940       -0.90492
B         -0.82891       -2.96972        0.31903
B          0.28495       -1.77839       -1.60560
B          5.06710       -1.60416        1.46246
B          5.38508       -0.07992        1.44755
B          5.28962        1.46116        1.41497
B         -0.18678       -1.46608        0.17418
