45
isomer_0838.log	Energy: -113496.3615083
B         -2.32920        1.60946        0.27360
B         -2.24013        3.30544       -0.29291
B         -0.87875        4.11231       -0.27251
B          0.51276        3.41994        0.63228
B         -1.00171        0.93062        0.84359
B          1.87985        0.77571        1.07325
B          1.92699        4.06165       -0.24431
B         -3.81569        0.99804       -0.01189
B          1.91080        2.48302        0.47702
B         -3.60358        2.53606       -0.47612
B          0.54616        4.64041       -0.43716
B          3.24414        3.13425       -0.24357
B          3.26379        1.57148        0.32148
B          4.52621        0.58435       -0.29475
B          0.24828       -1.66647        0.87456
B          1.54974       -2.46467        0.28170
B          3.05067       -1.81917        0.10446
B          4.59197       -1.08621       -0.01289
B          4.20637       -2.66319       -0.78659
B          2.81030       -3.37647       -0.43516
B          1.38183       -4.11598       -0.43612
B          0.05236       -3.22461        0.26013
B         -0.05648       -4.64102       -0.44626
B         -2.78192       -3.27044        0.14451
B         -1.42345       -4.00401       -0.04763
B         -2.76226       -1.68379        0.30820
B         -4.18071       -2.41056       -0.10569
B         -4.01005       -0.74419        0.08450
B         -1.33926       -2.29371        0.80844
B         -0.99213        2.62110        0.54274
B          3.31422       -0.14455        0.60767
B         -2.09797       -0.22157        0.51624
B          4.55750        2.24145       -0.67715
B         -5.05528        1.87161       -0.80625
B         -5.20645        0.21405       -0.39590
B         -5.43036       -1.46886       -0.59488
B         -6.43229       -0.44175       -1.23794
B         -6.28355        1.05004       -1.29452
B          1.70978       -0.83938        0.71928
B         -1.00097       -0.79851        1.60798
B          0.46294        1.85708        1.14597
B          5.65139        1.30466       -1.14715
B          5.72931       -0.27056       -1.17620
B          5.36335       -1.76583       -1.23714
B          0.43148        0.09277        1.48311
