45
isomer_0084.log	Energy: -112447.4411215
B         -2.62671       -1.63316       -0.37518
B         -2.62411       -3.26534        0.02928
B         -1.22028       -4.09715        0.28260
B          0.23894       -3.27881       -0.28186
B         -1.16428       -0.75158       -0.69613
B          1.71018       -0.79353       -0.78484
B          1.62713       -4.05933        0.41677
B         -4.08187       -0.75240       -0.31273
B          1.62555       -2.38900       -0.20026
B         -4.02818       -2.43761        0.16915
B          0.19993       -4.71524        0.56795
B          3.06231       -3.21778        0.41666
B          3.09428       -1.60508       -0.17394
B          4.55780       -0.79065        0.30865
B          0.28572        1.76698       -0.88753
B          1.67181        2.46596       -0.27359
B          3.12535        1.65535       -0.22319
B          4.57322        0.82813        0.28420
B          4.42082        2.39083        0.50607
B          3.12428        3.28547        0.31843
B          1.70539        4.15383        0.29271
B          0.30239        3.37916       -0.38243
B          0.29098        4.84108        0.42361
B         -2.56031        3.42964       -0.07185
B         -1.14082        4.24182        0.15664
B         -2.59412        1.78633       -0.42683
B         -3.97986        2.63341        0.09256
B         -4.06579        0.93574       -0.33823
B         -1.15642        2.59438       -0.60360
B         -1.20471       -2.47342       -0.52705
B          3.19166       -0.08163       -0.59374
B         -1.14885        0.86776       -0.72059
B          4.37571       -2.34275        0.57757
B         -5.34405       -1.61275        0.66255
B         -5.32594        0.01460        0.40402
B         -5.31106        1.84904        0.61026
B         -6.48463        0.91460        1.22820
B         -6.49942       -0.63788        1.25165
B          1.72587        0.85224       -0.80970
B         -0.43467       -2.58747       -1.32638
B          0.25285       -1.68260       -0.83543
B          5.89130       -1.64299        0.77921
B          6.10276        0.06910        0.81810
B          5.92148        1.80077        0.79780
B         -0.08162        0.09194       -0.54957
