45
isomer_0841.log	Energy: -113521.5865852
B         -2.60751       -1.89877       -1.00563
B         -2.24097       -3.12069        0.47324
B         -0.87010       -3.99928        0.34022
B          0.42526       -3.31733       -0.48815
B         -1.01475       -0.81161       -0.71300
B          1.76326       -0.74075       -0.78398
B          1.91122       -4.05674        0.13495
B         -3.86865       -0.98367       -0.40804
B          1.86722       -2.42036       -0.52799
B         -3.59467       -2.36867        0.62264
B          0.51390       -4.61990        0.43660
B          3.25127       -3.22376        0.02168
B          3.31720       -1.62480       -0.44437
B          4.71879       -0.73797       -0.17776
B          0.35185        1.75059       -0.97061
B          1.69897        2.51626       -0.21889
B          3.11192        1.74806       -0.11924
B          4.55253        0.90125        0.19189
B          4.39018        2.50355        0.79204
B          2.99151        3.30644        0.46386
B          1.59367        4.11071        0.44915
B          0.27215        3.40260       -0.43581
B          0.15611        4.69434        0.47935
B         -2.57166        3.36194       -0.19188
B         -1.22103        4.14615        0.05295
B         -2.52496        1.72933       -0.57032
B         -3.93649        2.50529       -0.03352
B         -3.96048        0.83607       -0.34899
B         -1.15894        2.58049       -0.80621
B         -1.09919       -2.50782       -0.67460
B          3.28927        0.09647       -0.66152
B         -1.02316        0.88089       -0.83230
B          4.58993       -2.38187        0.41229
B         -5.04396       -1.69634        0.77337
B         -5.24981       -0.10520        0.16374
B         -5.13705        1.61665        0.54100
B         -6.14652        0.63773        1.27667
B         -6.20965       -0.85077        1.27022
B          1.75095        0.88571       -0.82578
B         -2.13115       -1.39149        0.58943
B          0.44512       -1.63864       -0.91312
B          5.65144       -1.42707        0.93792
B          5.84258        0.09366        0.99646
B          5.59530        1.63493        1.13246
B         -2.44087       -0.01560       -0.40043
