45
isomer_0842.log	Energy: -113366.9054747
B          2.60880       -1.77199        0.68771
B          2.48090       -3.15873       -0.74763
B          1.12602       -3.90605       -0.86872
B         -0.24882       -3.20371        0.00481
B          1.35496       -0.60919        1.23949
B         -1.63911       -0.78659        1.00171
B         -1.67332       -3.98598       -0.45501
B          3.91453       -0.88442        0.28931
B         -1.69519       -2.51242        0.61902
B          3.72521       -2.31987       -0.55137
B         -0.33336       -4.49386       -0.93664
B         -3.01546       -3.19189       -0.14289
B         -3.08671       -1.67151        0.40395
B         -4.43673       -0.77686       -0.13395
B         -0.33285        1.86887        0.86810
B         -1.74090        2.56828        0.37390
B         -3.13537        1.72530        0.23036
B         -4.59965        0.85667        0.09086
B         -4.39047        2.45803       -0.67008
B         -3.06811        3.29148       -0.39283
B         -1.68477        4.13104       -0.54983
B         -0.30394        3.38546        0.19467
B         -0.27161        4.67774       -0.73798
B          2.53249        3.34140       -0.13094
B          1.17134        4.10766       -0.39753
B          2.55706        1.66707        0.64631
B          3.84115        2.48181       -0.07949
B          3.94006        0.90757        0.39438
B          1.17755        2.56435        0.40137
B          1.30078       -2.70548        0.32064
B         -3.22726        0.03087        0.67213
B          1.16489        0.97888        1.06139
B         -4.41503       -2.43315       -0.49553
B          5.13609       -1.52770       -0.72155
B          5.24546        0.02028       -0.11677
B          5.21453        1.69371       -0.43754
B          6.19656        0.85861       -1.23581
B          6.15512       -0.58768       -1.38114
B         -1.69490        0.86375        0.71161
B          1.39507       -2.03303        1.78905
B         -0.18699       -1.82021        1.10177
B         -5.57407       -1.59129       -0.91201
B         -5.75073       -0.02866       -0.97848
B         -5.49985        1.48262       -1.08152
B         -0.23337        0.03883        1.05272
