45
isomer_0843.log	Energy: -113394.9533282
B          2.48133        1.63020       -0.37602
B          2.56540        3.33927       -0.18078
B          1.21133        4.12458       -0.03987
B         -0.27178        3.36121       -0.54398
B          1.08605        0.81996       -0.77946
B         -1.67946        0.85732       -1.12723
B         -1.56820        4.07789        0.37232
B          3.84243        0.84488       -0.05384
B         -1.44785        2.29496        0.15567
B          3.87503        2.46901        0.08303
B         -0.18293        4.70196        0.31552
B         -2.89332        3.19342        0.48655
B         -2.99275        1.71105       -0.23877
B         -4.40632        0.80065        0.19612
B         -0.30411       -1.81553       -0.98687
B         -1.68927       -2.51306       -0.34278
B         -3.07940       -1.69273       -0.25305
B         -4.53764       -0.83083       -0.15826
B         -4.37704       -2.44502        0.54928
B         -3.01640       -3.30047        0.25454
B         -1.65241       -4.16795        0.29876
B         -0.24982       -3.40403       -0.41701
B         -0.24161       -4.75217        0.40574
B          2.57175       -3.37632        0.02330
B          1.19293       -4.15072        0.13708
B          2.59748       -1.71484       -0.51984
B          3.90298       -2.52764        0.22494
B          3.86414       -0.90399       -0.06707
B          1.23714       -2.60319       -0.67294
B          1.22484        2.56703       -0.87714
B         -3.20938        0.04009       -0.73667
B          1.29068       -0.91340       -1.00157
B         -4.26444        2.44561        0.74309
B          5.21650        1.65522        0.60324
B          5.15319       -0.01748        0.35842
B          5.22685       -1.67360        0.67783
B          6.33802       -0.73290        1.22185
B          6.34481        0.77085        1.16399
B         -1.68198       -0.77311       -0.73935
B         -0.48977        1.00924        0.32261
B         -0.30746        1.79699       -1.25968
B         -5.49841        1.58072        1.03499
B         -5.68334        0.04878        0.99810
B         -5.44302       -1.48780        0.99839
B         -0.05475       -0.34410       -0.25318
