45
isomer_0844.log	Energy: -113675.8867440
B          2.50963       -1.75953        0.48863
B          2.42829       -3.33437       -0.04008
B          1.04839       -4.15714       -0.12302
B         -0.35028       -3.38471        0.51409
B          1.13016       -0.84839        1.04186
B         -1.78570       -0.83045        0.91024
B         -1.74731       -4.14422       -0.24666
B          3.95673       -0.90988        0.21610
B         -1.80150       -2.53278        0.48849
B          3.81037       -2.53670       -0.29249
B         -0.34071       -4.74566       -0.35251
B         -3.09134       -3.28097       -0.26596
B         -3.17321       -1.68087        0.26019
B         -4.53261       -0.79877       -0.23612
B         -0.31315        1.83095        1.08804
B         -1.72512        2.55132        0.43126
B         -3.12915        1.73269        0.22113
B         -4.54678        0.89335       -0.14628
B         -4.32699        2.49896       -0.77066
B         -3.00906        3.33976       -0.27895
B         -1.64276        4.16948       -0.25857
B         -0.26965        3.40297        0.53899
B         -0.22078        4.74801       -0.35312
B          2.51280        3.30379       -0.03738
B          1.15566        4.14917       -0.10946
B          2.56272        1.73082        0.52992
B          3.86908        2.48522       -0.27634
B          3.98394        0.84583        0.22466
B          1.18534        2.57781        0.78853
B          1.11982       -2.58961        0.76504
B         -3.29372        0.01573        0.60917
B          1.16972        0.85079        1.06819
B         -4.40650       -2.44499       -0.74918
B          5.06136       -1.73812       -0.86405
B          5.19585       -0.04390       -0.52248
B          5.10405        1.65226       -0.84562
B          6.10456        0.70736       -1.60568
B          6.08491       -0.81334       -1.61230
B         -1.71830        0.84340        0.78912
B          2.60978       -0.01578        0.74602
B         -0.36867       -1.82523        1.11690
B         -5.47269       -1.51915       -1.30135
B         -5.62003        0.03273       -1.30435
B         -5.37423        1.56919       -1.33806
B         -0.34296        0.00300        1.09410
