45
isomer_0845.log	Energy: -113356.7087169
B         -3.01058        1.69848        0.53867
B         -2.99276        3.08906       -0.51411
B         -1.63547        3.92504       -0.67925
B         -0.16380        3.36871        0.22331
B         -1.66882        0.96791        1.02834
B          1.33528        0.69081        0.99563
B          1.20384        3.96346       -0.64590
B         -4.17787        0.64034        0.23381
B          1.30339        2.43626        0.25250
B         -4.27814        2.14727       -0.48150
B         -0.21699        4.42782       -0.97497
B          2.59596        3.27284       -0.31401
B          2.78794        1.75924        0.37098
B          4.40747        1.16189        0.29112
B          0.94636       -2.37210        1.38232
B          2.27805       -2.69824        0.38454
B          3.24571       -1.45743       -0.07950
B          4.61619       -0.46961       -0.14587
B          4.79270       -2.04192       -0.80047
B          3.49038       -2.97223       -0.75584
B          2.07140       -3.58787       -1.09023
B          0.70669       -3.28754        0.04347
B          0.59786       -3.96824       -1.38746
B         -2.05502       -3.11792       -0.07418
B         -0.70321       -3.61889       -0.71642
B         -2.35673       -1.77857        0.81348
B         -3.51001       -2.57378       -0.08100
B         -3.86658       -1.06149        0.39488
B         -0.68793       -2.33401        0.74113
B         -1.60448        2.45902        0.17058
B          3.12380        0.10792        0.66840
B         -1.32849       -0.62398        1.22168
B          4.09639        2.67571       -0.37698
B         -5.51377        1.13922       -0.72526
B         -5.35853       -0.44597       -0.00049
B         -5.02476       -2.04618       -0.40980
B         -6.23768       -1.41516       -1.05818
B         -6.42886        0.03698       -1.21772
B          1.99345       -1.04231        1.00088
B         -0.22866        0.50704        1.75699
B         -0.11071        1.87110        0.88324
B          5.39685        1.97120       -0.68488
B          5.88388        0.51923       -0.68812
B          5.93318       -1.02295       -0.84711
B          0.35307       -0.90018        1.35330
