45
isomer_0846.log	Energy: -113395.9753409
B         -2.47250        1.79248        0.53386
B         -2.39547        3.43608       -0.02535
B         -1.01973        4.20752       -0.14228
B          0.37139        3.43108        0.55330
B         -1.17987        0.92702        1.07169
B          1.74224        0.84472        0.90022
B          1.76935        4.14063       -0.26064
B         -3.85836        1.03895        0.16534
B          1.79199        2.54830        0.51805
B         -3.73091        2.62333       -0.20588
B          0.37568        4.74222       -0.39601
B          3.10404        3.27211       -0.25060
B          3.13735        1.68167        0.27131
B          4.50451        0.76004       -0.16825
B          0.19299       -1.71780        0.94722
B          1.58680       -2.51784        0.36245
B          3.04839       -1.74515        0.26223
B          4.51170       -0.92752       -0.02567
B          4.18959       -2.46033       -0.78702
B          2.83365       -3.32169       -0.35562
B          1.44143       -4.07067       -0.34607
B          0.15210       -3.35900        0.77713
B         -0.02775       -4.51428       -0.40614
B         -2.50205       -3.12487       -0.11267
B         -1.36151       -4.18156        0.29013
B         -2.59027       -1.58678        0.67510
B         -3.82484       -2.26057       -0.28702
B         -3.90051       -0.72588        0.19146
B         -1.32539       -2.53638        1.14131
B         -1.11425        2.63505        0.74525
B          3.24508       -0.02693        0.61912
B         -1.26493       -0.68914        0.96807
B          4.39022        2.41431       -0.72585
B         -5.06116        1.83989       -0.77128
B         -5.09363        0.20283       -0.44186
B         -5.12199       -1.44361       -0.82278
B         -6.11167       -0.52134       -1.53652
B         -6.09119        0.96882       -1.50527
B          1.63297       -0.83180        0.71156
B         -0.82032       -2.74683       -0.57896
B          0.35246        1.87905        1.16020
B          5.44950        1.47897       -1.25238
B          5.56021       -0.05865       -1.27350
B          5.24020       -1.56058       -1.33971
B          0.24449        0.06416        1.15234
