45
isomer_0847.log	Energy: -112761.3810196
B         -2.66634       -1.72394       -0.39498
B         -2.64725       -3.38160        0.00223
B         -1.25284       -4.20216        0.23004
B          0.20868       -3.40394       -0.35976
B         -1.25335       -0.84924       -0.71509
B          1.80506       -0.73338       -0.85314
B          1.60188       -4.14544        0.34339
B         -4.08910       -0.82463       -0.30649
B          1.67554       -2.47019       -0.25347
B         -4.02402       -2.50617        0.15936
B          0.18613       -4.77696        0.48387
B          3.04972       -3.29764        0.37130
B          3.14803       -1.66263       -0.20425
B          4.59944       -0.83152        0.30594
B          0.33417        1.73793       -0.90452
B          1.73154        2.45533       -0.25073
B          3.18260        1.64240       -0.20181
B          4.61947        0.80380        0.30798
B          4.48019        2.37661        0.57790
B          3.13977        3.25434        0.38418
B          1.72735        4.09441        0.36705
B          0.31917        3.36454       -0.33327
B          0.31697        4.73629        0.50162
B         -2.55068        3.38740        0.00363
B         -1.12458        4.17347        0.23123
B         -2.66432        1.76088       -0.41183
B         -3.99603        2.55917        0.16845
B         -4.08140        0.90720       -0.30623
B         -1.17782        2.59044       -0.57905
B         -1.27916       -2.61838       -0.57715
B          3.26235       -0.07996       -0.60394
B         -1.07354        0.73931       -0.60919
B          4.43487       -2.42169        0.57193
B         -5.29939       -1.68300        0.68380
B         -5.29084       -0.03405        0.44522
B         -5.27511        1.75634        0.68165
B         -6.39025        0.80975        1.29958
B         -6.42278       -0.70130        1.30912
B          1.81201        0.86602       -0.83314
B         -1.57902        1.02189       -1.48796
B          0.19413       -1.85047       -0.94680
B          5.85919       -1.65018        0.78003
B          6.06435        0.02190        0.84237
B          5.90031        1.66954        0.84545
B          0.48489       -0.88050       -0.76450
