45
isomer_0848.log	Energy: -113151.5041120
B         -2.57193        1.71138        0.40277
B         -2.56908        3.33281        0.01467
B         -1.17412        4.15719       -0.21583
B          0.25477        3.34895        0.33034
B         -1.13696        0.84292        0.69546
B          1.68096        0.83881        0.81541
B          1.63025        4.12395       -0.34732
B         -3.98677        0.86574        0.33837
B          1.63885        2.46526        0.24137
B         -3.91069        2.51413       -0.12043
B          0.21028        4.73881       -0.48123
B          3.04214        3.28018       -0.35872
B          3.07234        1.67022        0.20590
B          4.52580        0.83265       -0.27599
B          0.26456       -1.66999        0.87014
B          1.62802       -2.40584        0.24739
B          3.06161       -1.61817        0.21279
B          4.51054       -0.79818       -0.27420
B          4.37398       -2.36993       -0.54149
B          3.01604       -3.23320       -0.34066
B          1.60103       -4.07748       -0.32502
B          0.22709       -3.28872        0.35258
B          0.19363       -4.68768       -0.43896
B         -2.60937       -3.26491        0.05864
B         -1.22020       -4.09635       -0.16958
B         -2.60534       -1.62254        0.42193
B         -3.96049       -2.42891       -0.08688
B         -4.00422       -0.80337        0.34745
B         -1.20711       -2.48319        0.58896
B         -1.17461        2.54589        0.55840
B          3.15057        0.10609        0.60383
B         -1.16779       -0.73533        0.70668
B          4.40538        2.41959       -0.55184
B         -5.22361        1.71916       -0.60302
B         -5.22014        0.10959       -0.35744
B         -5.24588       -1.63384       -0.57436
B         -6.34994       -0.73678       -1.16243
B         -6.36573        0.78527       -1.18910
B          1.67856       -0.79207        0.81824
B         -0.40125       -1.32623       -0.64108
B          0.25549        1.73313        0.86284
B          5.79777        1.61292       -0.73265
B          5.96094       -0.02562       -0.77772
B          5.77419       -1.66005       -0.77846
B          0.15046        0.00376        1.65026
