45
isomer_0085.log	Energy: -113373.0441758
B         -2.62634        1.68861        0.56172
B         -2.56438        3.35351       -0.18672
B         -1.20663        4.13500       -0.23316
B          0.23664        3.26880        0.27036
B         -1.26640        0.84095        0.86339
B          1.69536        0.74675        1.02499
B          1.63916        4.20717       -0.00561
B         -4.03516        0.95773        0.17938
B          1.68066        2.48728        0.68557
B         -3.85773        2.51429       -0.31310
B          0.22788        4.76327       -0.27743
B          2.99223        3.35616        0.06485
B          3.12053        1.73501        0.48096
B          4.51576        0.87428       -0.03618
B          0.09036       -1.70965        1.30927
B          2.00465       -2.82594        0.53468
B          3.05919       -1.65763       -0.00077
B          4.23105       -0.64826       -0.64304
B          4.16772       -2.22188       -1.27644
B          2.91101       -3.11793       -0.80360
B          1.56770       -3.94898       -0.68157
B          0.34910       -3.35037        0.67519
B          0.19597       -4.48519       -0.53457
B         -2.53940       -3.17194       -0.09720
B         -1.13836       -3.97385       -0.15580
B         -2.65692       -1.60089        0.60897
B         -3.88303       -2.34509       -0.28478
B         -4.00757       -0.79065        0.20059
B         -1.24523       -2.47107        0.54765
B         -1.20802        2.39661        0.18552
B          3.20414       -0.03145        0.58740
B         -1.30951       -0.76683        1.06403
B          4.32586        2.58303       -0.38261
B         -5.22489        1.69740       -0.77471
B         -5.31373        0.06805       -0.32470
B         -5.24792       -1.58331       -0.73670
B         -6.30029       -0.70173       -1.41767
B         -6.27935        0.79021       -1.45119
B          1.82520       -0.98367        1.24299
B          0.21195       -0.01048        1.20131
B          0.25111        1.66698        0.72275
B          5.35319        1.73393       -1.10739
B          5.47966        0.24392       -1.44479
B          5.23843       -1.26246       -1.72969
B          1.33639       -2.44966        1.88787
