45
isomer_0850.log	Energy: -111997.3548707
B          2.70720       -1.58417        0.38973
B          2.71401       -3.23888       -0.01465
B          1.30990       -4.13267       -0.28905
B         -0.29881       -3.25944        0.25386
B          1.26166       -0.70727        0.70296
B         -1.73148       -0.73669        0.77614
B         -1.67645       -4.01734       -0.42976
B          4.13147       -0.71140        0.32728
B         -1.66284       -2.36907        0.18587
B          4.09254       -2.39378       -0.14086
B         -0.17322       -4.69809       -0.57475
B         -3.09395       -3.17063       -0.43623
B         -3.12819       -1.56129        0.15624
B         -4.57889       -0.72426       -0.32485
B         -0.25152        1.79826        0.88446
B         -1.64973        2.50508        0.26017
B         -3.11578        1.70714        0.20563
B         -4.57559        0.88920       -0.30228
B         -4.40652        2.45856       -0.53390
B         -3.08623        3.33295       -0.33886
B         -1.66364        4.18087       -0.31200
B         -0.26261        3.40748        0.36808
B         -0.24507        4.84079       -0.43872
B          2.60118        3.43978        0.05978
B          1.17970        4.24449       -0.17037
B          2.64371        1.80176        0.42901
B          4.01203        2.64492       -0.09275
B          4.10511        0.97060        0.34529
B          1.21070        2.61109        0.59694
B          1.30673       -2.41062        0.53612
B         -3.20738       -0.01434        0.57803
B          1.21532        0.88531        0.72659
B         -4.42644       -2.28592       -0.60147
B          5.39586       -1.56637       -0.63317
B          5.36504        0.05635       -0.38428
B          5.34112        1.86580       -0.59998
B          6.50350        0.94866       -1.20599
B          6.53696       -0.59405       -1.22325
B         -1.72573        0.90741        0.79956
B          0.42012       -3.14506        0.41188
B         -0.18317       -1.63803        0.84675
B         -5.89903       -1.54968       -0.79600
B         -6.08769        0.14650       -0.83427
B         -5.89091        1.83896       -0.81675
B         -1.03298       -0.97292        1.65383
