45
isomer_0851.log	Energy: -110157.0581516
B          2.60983        1.73053       -0.41837
B          2.58778        3.36803       -0.03662
B          1.17421        4.18602        0.20735
B         -0.27566        3.34210       -0.34339
B          1.15788        0.82672       -0.72474
B         -1.71700        0.83222       -0.80947
B         -1.67233        4.11519        0.34652
B          4.07578        0.86862       -0.34599
B         -1.65113        2.43659       -0.24724
B          4.00210        2.55958        0.11252
B         -0.25307        4.79058        0.48633
B         -3.09708        3.25621        0.36037
B         -3.11009        1.63518       -0.20772
B         -4.56282        0.80967        0.28845
B         -0.26138       -1.71182       -0.87885
B         -1.63792       -2.41912       -0.25307
B         -3.10122       -1.62576       -0.21163
B         -4.55842       -0.80936        0.28651
B         -4.38654       -2.36684        0.52982
B         -3.07939       -3.24805        0.35257
B         -1.64999       -4.09924        0.33667
B         -0.25755       -3.31690       -0.35137
B         -0.22707       -4.76723        0.47487
B          2.60599       -3.32799       -0.04465
B          1.19689       -4.15424        0.19734
B          2.61914       -1.68949       -0.42247
B          4.01589       -2.51222        0.10644
B          4.08038       -0.81979       -0.34801
B          1.19121       -2.51747       -0.58573
B          1.17742        2.55112       -0.57965
B         -3.18937        0.10496       -0.60617
B          1.16229       -0.79286       -0.72668
B         -4.39942        2.36748        0.53550
B          5.32868        1.75784        0.61525
B          5.33018        0.12695        0.37937
B          5.33810       -1.70448        0.61110
B          6.50098       -0.74723        1.21415
B          6.49676        0.80548        1.21601
B         -1.71253       -0.81380       -0.81145
B          1.11824       -1.29323       -0.42350
B         -0.27076        1.73829       -0.87471
B         -5.90602        1.65208        0.74923
B         -6.09640       -0.06177        0.81223
B         -5.89391       -1.79120        0.81570
B         -0.80269        0.72869       -0.78280
