45
isomer_0852.log	Energy: -112438.4767050
B          2.59452       -1.61609        0.37492
B          2.60022       -3.24757       -0.03231
B          1.20061       -4.08623       -0.28639
B         -0.26258       -3.27646        0.28015
B          1.12768       -0.74267        0.69806
B         -1.74648       -0.79972        0.78805
B         -1.64702       -4.06300       -0.41915
B          4.04506       -0.72766        0.31328
B         -1.65383       -2.39373        0.20071
B          3.99990       -2.41231       -0.17144
B         -0.21649       -4.71122       -0.57212
B         -3.08656       -3.22893       -0.41693
B         -3.12663       -1.61742        0.17643
B         -4.59460       -0.80980       -0.30409
B         -0.33531        1.76798        0.89443
B         -1.72531        2.46078        0.28233
B         -3.17463        1.64271        0.23124
B         -4.61843        0.80884       -0.27688
B         -4.47426        2.37268       -0.49616
B         -3.18230        3.27373       -0.30761
B         -1.76794        4.14941       -0.28108
B         -0.36060        3.38091        0.39207
B         -0.35719        4.84424       -0.41148
B          2.50165        3.44681        0.08023
B          1.07784        4.25198       -0.14621
B          2.54418        1.80310        0.43240
B          3.92524        2.65825       -0.08620
B          4.02020        0.96033        0.34166
B          1.10238        2.60336        0.61123
B          1.17699       -2.46399        0.52603
B         -3.23174       -0.09522        0.59887
B          1.10384        0.87652        0.72528
B         -4.40457       -2.36047       -0.57574
B          5.31122       -1.57977       -0.66406
B          5.28478        0.04702       -0.40275
B          5.26025        1.88170       -0.60586
B          6.43837        0.95443       -1.22595
B          6.46122       -0.59791       -1.25205
B         -1.77071        0.84589        0.81571
B          1.65295       -0.65425       -0.26477
B         -0.28452       -1.68128        0.83644
B         -5.92387       -1.66827       -0.77547
B         -6.14425        0.04276       -0.81135
B         -5.97197        1.77532       -0.78819
B          0.63270       -2.01478        1.97473
