45
isomer_0854.log	Energy: -113415.7607854
B         -2.32032        1.98284        0.42705
B         -2.20486        3.56662       -0.11156
B         -0.79000        4.33268       -0.05499
B          0.58058        3.47927        0.57927
B         -1.03199        1.11387        1.18294
B          1.70492        0.77662        0.79643
B          2.00177        4.14812       -0.11486
B         -3.65338        1.12846       -0.09724
B          1.91538        2.48587        0.61179
B         -3.57712        2.80772       -0.44063
B          0.65921        4.84944       -0.23995
B          3.28780        3.17832       -0.12498
B          3.20114        1.57426        0.19345
B          4.53199        0.60494       -0.22572
B          0.15787       -1.78259        1.02534
B          1.45634       -2.52641        0.34495
B          2.92474       -1.81346        0.04723
B          4.43016       -1.05186       -0.18031
B          4.10882       -2.60740       -0.87091
B          2.74561       -3.35460       -0.43206
B          1.37544       -4.18564       -0.36838
B          0.04519       -3.41599        0.37976
B          0.00795       -4.78393       -0.46337
B         -2.63488       -3.24110       -0.10786
B         -1.40073       -4.18297       -0.19806
B         -2.48823       -1.59220        0.75091
B         -3.77045       -2.24944       -0.27163
B         -3.69403       -0.62269        0.08375
B         -1.47727       -3.11687        1.09553
B         -0.95415        2.78808        0.73744
B          3.10522       -0.12892        0.45720
B         -1.04864       -0.49094        1.42767
B          4.56445        2.28993       -0.59461
B         -4.79245        1.97645       -1.03043
B         -4.98289        0.27634       -0.62015
B         -5.00527       -1.39580       -0.82827
B         -6.00831       -0.48894       -1.58906
B         -5.81329        0.99307       -1.78824
B          1.50855       -0.86162        0.69334
B         -2.35310        0.25679        0.56924
B          0.47691        1.83071        1.09448
B          5.59595        1.31441       -1.16415
B          5.64877       -0.24038       -1.22646
B          5.29213       -1.74646       -1.32364
B         -1.32551       -1.87461        1.96976
