45
isomer_0856.log	Energy: -113407.6913092
B          1.90606        1.82720       -0.21197
B          1.62724        3.55842        0.33181
B          0.25180        4.23866        0.11926
B         -0.97261        3.34605       -0.64683
B          0.85418        1.08539       -1.34411
B         -1.77982        0.58565       -0.97761
B         -2.50995        3.86189       -0.07894
B          3.35647        1.37503        0.17552
B         -2.22773        2.25150       -0.83449
B          2.95352        2.93925        0.69585
B         -1.24836        4.64783        0.22115
B         -3.67434        2.77664       -0.15836
B         -3.40455        1.18549       -0.47363
B         -4.54657        0.04509        0.05157
B         -0.04983       -1.78815       -1.57929
B         -0.83981       -2.32444        0.04122
B         -2.46730       -2.04252        0.10407
B         -4.00929       -1.45238        0.46524
B         -3.40999       -2.85365        1.29792
B         -1.91626       -3.35069        0.88997
B         -0.50399       -4.03599        0.59979
B          0.44598       -3.15785       -0.57102
B          0.81257       -4.56707        0.20666
B          3.13828       -2.89925       -0.72423
B          2.00685       -3.87880       -0.46959
B          2.68661       -1.10200       -0.96483
B          4.10569       -1.86753       -0.27323
B          3.76915       -0.22652       -0.24044
B          1.59867       -2.27998       -1.25324
B          0.55614        2.63935       -0.62040
B         -3.04134       -0.52209       -0.56319
B          1.18444       -0.56587       -1.71087
B         -4.78970        1.73886        0.38372
B          4.29950        2.25170        1.33516
B          4.62756        0.65075        0.86113
B          5.13762       -0.93396        0.64419
B          5.90949       -0.00738        1.59155
B          5.49550        1.45700        1.94290
B         -1.34168       -0.96781       -0.91390
B          1.81496        0.10222       -0.16457
B         -0.69729        1.72771       -1.25058
B         -5.59304        0.67486        1.10442
B         -5.35635       -0.83445        1.40111
B         -4.73696       -2.21086        1.68879
B          0.57849       -1.09728       -0.12768
