45
isomer_0858.log	Energy: -112449.2842153
B         -2.55742        1.75458        0.39490
B         -2.53348        3.39100        0.00869
B         -1.11875        4.20819       -0.23114
B          0.32853        3.36571        0.32853
B         -1.10695        0.85151        0.71038
B          1.76752        0.85703        0.80815
B          1.72839        4.13676       -0.35719
B         -4.02310        0.89257        0.31827
B          1.70434        2.45982        0.24116
B         -3.94719        2.58224       -0.14462
B          0.30983        4.81187       -0.50532
B          3.15311        3.27764       -0.36217
B          3.16340        1.65820        0.21050
B          4.61829        0.83120       -0.27676
B          0.31137       -1.68670        0.87801
B          1.69068       -2.39585        0.26047
B          3.15422       -1.60271        0.22347
B          4.61374       -0.78782       -0.27033
B          4.44283       -2.34596       -0.51007
B          3.13481       -3.22657       -0.33630
B          1.70528       -4.07760       -0.32452
B          0.30979       -3.29325        0.35500
B          0.28294       -4.74587       -0.46732
B         -2.55232       -3.30497        0.03531
B         -1.14222       -4.13200       -0.19797
B         -2.56704       -1.66543        0.40850
B         -3.96145       -2.48953       -0.12445
B         -4.02785       -0.79582        0.32498
B         -1.13994       -2.49305        0.58055
B         -1.12568        2.57550        0.56040
B          3.24072        0.12909        0.61357
B         -1.11151       -0.76806        0.71682
B          4.45615        2.38833       -0.52890
B         -5.27154        1.77920       -0.65113
B         -5.27426        0.14898       -0.41071
B         -5.28128       -1.68310       -0.63736
B         -6.44133       -0.72745       -1.24835
B         -6.43696        0.82526       -1.25453
B          1.76289       -0.78897        0.81470
B         -1.27973       -1.63864       -0.35425
B          0.32107        1.76338        0.86430
B          5.96364        1.67222       -0.73379
B          6.15415       -0.04181       -0.79114
B          5.95153       -1.77123       -0.79070
B         -1.36919        0.10208        1.85236
