45
isomer_0859.log	Energy: -113185.5766977
B         -2.59124       -1.69745       -0.55943
B         -2.38098       -3.35216       -0.05806
B         -0.94275       -4.04469        0.13080
B          0.51400       -3.39508       -0.39546
B         -1.56557       -0.57009       -1.01746
B          1.88314       -0.78827       -0.96173
B          1.89244       -4.08117        0.48076
B         -3.95945       -0.92321       -0.33581
B          2.01939       -2.54448       -0.26651
B         -3.81193       -2.58234        0.09842
B          0.45846       -4.63869        0.54271
B          3.29014       -3.18861        0.45352
B          3.32067       -1.61525       -0.18724
B          4.60838       -0.65034        0.29439
B          0.22265        1.77026       -1.01204
B          1.56967        2.47209       -0.37666
B          3.03860        1.76540       -0.28108
B          4.47076        0.99316        0.23838
B          4.29883        2.64238        0.58386
B          2.88944        3.32010        0.29023
B          1.51262        4.12558        0.30364
B          0.14088        3.36482       -0.41663
B          0.11883        4.69617        0.46370
B         -2.67047        3.33599        0.02635
B         -1.31755        4.09568        0.17353
B         -2.69578        1.63821       -0.49212
B         -3.99851        2.43404        0.18875
B         -4.02554        0.82371       -0.31085
B         -1.31440        2.55824       -0.65712
B         -1.10229       -2.56968       -0.67910
B          3.29311        0.05125       -0.63703
B         -1.26771        0.94663       -0.93279
B          4.68500       -2.29251        0.71311
B         -5.12908       -1.79142        0.64837
B         -5.18475       -0.13877        0.42338
B         -5.26048        1.54340        0.71142
B         -6.26020        0.59700        1.40118
B         -6.20300       -0.93610        1.37867
B          1.73204        0.89810       -0.95395
B         -2.28084       -0.03582        0.26229
B          0.83650       -1.99145       -1.18210
B          5.83076       -1.32885        0.95559
B          5.87714        0.29632        0.92568
B          5.59209        1.84002        0.91013
B         -0.13300       -1.05211       -0.88572
