45
isomer_0860.log	Energy: -113658.6756885
B         -2.49976       -1.73378       -0.33844
B         -2.46422       -3.35293        0.09137
B         -1.05653       -4.14908        0.21347
B          0.34767       -3.39117       -0.43812
B         -1.12824       -0.86722       -0.88861
B          1.77713       -0.84589       -0.95739
B          1.74817       -4.11747        0.34155
B         -3.98076       -0.90868       -0.28728
B          1.77939       -2.50097       -0.41150
B         -3.85152       -2.53613        0.29343
B          0.34342       -4.71859        0.47059
B          3.10040       -3.26177        0.30964
B          3.17229       -1.69361       -0.27293
B          4.54856       -0.79926        0.17141
B          0.33034        1.81219       -0.99391
B          1.72719        2.52663       -0.32740
B          3.14753        1.73876       -0.25709
B          4.53571        0.87390        0.12052
B          4.42829        2.50147        0.65483
B          3.04577        3.33306        0.30272
B          1.66483        4.13938        0.36695
B          0.28374        3.38923       -0.40683
B          0.22272        4.70322        0.50122
B         -2.55864        3.32333        0.03673
B         -1.16947        4.13440        0.18849
B         -2.56649        1.71776       -0.48649
B         -3.92630        2.49757        0.20847
B         -4.02028        0.85998       -0.31761
B         -1.18685        2.59685       -0.66478
B         -1.13582       -2.60043       -0.66239
B          3.30382       -0.00049       -0.64951
B         -1.15026        0.88688       -0.88797
B          4.48446       -2.44644        0.65567
B         -5.14300       -1.73053        0.75261
B         -5.21617       -0.04224        0.44053
B         -5.18475        1.66350        0.70072
B         -6.26025        0.71595        1.37651
B         -6.25138       -0.79937        1.39099
B          1.75937        0.84193       -0.84200
B         -2.59621       -0.01677       -0.78451
B          0.34999       -1.84859       -1.11348
B          5.60377       -1.52376        1.10546
B          5.76100        0.03578        1.10005
B          5.54171        1.58283        1.12851
B          0.33962        0.01058       -0.93420
