45
isomer_0862.log	Energy: -113367.2907850
B          2.60851       -1.66733        0.44011
B          2.32954       -3.22633       -0.21332
B          0.90253       -3.87631       -0.27155
B         -0.55481       -3.23448        0.65834
B          1.26423       -0.81070        1.10057
B         -1.80342       -0.85378        1.10282
B         -1.89892       -3.86387       -0.40536
B          3.99811       -0.96958        0.13387
B         -2.28569       -2.68800        0.81119
B          3.75927       -2.45760       -0.51004
B         -0.51833       -4.33333       -0.54451
B         -3.30835       -3.06796       -0.43367
B         -3.26974       -1.53283        0.13770
B         -4.37735       -0.50221       -0.62345
B         -0.11672        1.72197        1.00585
B         -1.51534        2.54035        0.55529
B         -2.95521        1.83731        0.18773
B         -4.45980        1.10308       -0.19763
B         -4.08596        2.72775       -0.73217
B         -2.75128        3.43071       -0.16365
B         -1.33799        4.22226       -0.08785
B         -0.02967        3.28667        0.43889
B          0.09256        4.76974       -0.14661
B          2.76815        3.18987        0.05056
B          1.46492        4.07902       -0.00536
B          2.78386        1.54604        0.56412
B          4.11811        2.31345       -0.15752
B          4.08808        0.69278        0.14789
B          1.43867        2.46212        0.69335
B          1.15030       -2.47794        0.59672
B         -3.24772        0.12321        0.47780
B          1.34797        0.78159        1.10799
B         -4.48334       -2.16061       -1.03661
B          5.15705       -1.84388       -0.92982
B          5.32065       -0.18770       -0.54023
B          5.31666        1.49378       -0.80577
B          6.30573        0.51755       -1.58118
B          6.29329       -0.98230       -1.56829
B         -1.66437        0.78450        0.83854
B         -0.21047       -0.01391        0.97989
B         -0.10377       -1.70521        1.48975
B         -5.46122       -1.14993       -1.60735
B         -5.51258        0.39673       -1.53752
B         -5.16908        1.90044       -1.40052
B         -1.38708       -2.31513        1.98101
