45
isomer_0866.log	Energy: -113665.5604005
B         -2.51973       -1.75763       -0.42884
B         -2.46506       -3.32358        0.10282
B         -1.08706       -4.13632        0.21110
B          0.32304       -3.39062       -0.47435
B         -1.13008       -0.84631       -0.91241
B          1.76642       -0.83645       -0.89807
B          1.71086       -4.11467        0.32434
B         -3.97243       -0.89706       -0.23951
B          1.78484       -2.52683       -0.45002
B         -3.86063       -2.53130        0.28178
B          0.30407       -4.70338        0.46913
B          3.07668       -3.27603        0.28165
B          3.18383       -1.70440       -0.28799
B          4.58306       -0.83177        0.09634
B          0.33497        1.83094       -1.05812
B          1.76937        2.53272       -0.40931
B          3.17089        1.71327       -0.28756
B          4.56121        0.85749        0.13813
B          4.43213        2.48400        0.68789
B          3.05314        3.28789        0.31043
B          1.67521        4.11598        0.36042
B          0.29256        3.38386       -0.43359
B          0.25764        4.70005        0.48913
B         -2.53059        3.32423        0.01985
B         -1.13564        4.13068        0.18886
B         -2.55488        1.73150       -0.42952
B         -3.92513        2.50964        0.18399
B         -4.01741        0.85738       -0.31336
B         -1.16740        2.58417       -0.70635
B         -1.13966       -2.59731       -0.73529
B          3.31589        0.01603       -0.64822
B         -1.11644        0.85179       -0.88519
B          4.44285       -2.44886        0.67417
B         -5.13919       -1.71129        0.77864
B         -5.23776       -0.02166        0.42512
B         -5.20039        1.68721        0.68140
B         -6.24573        0.75204        1.39554
B         -6.21592       -0.77096        1.44120
B          1.76249        0.84970       -0.92127
B         -2.56854        0.00223       -0.61403
B          0.33437       -1.84216       -1.10720
B          5.50716       -1.52056        1.20984
B          5.71377        0.02328        1.17891
B          5.52245        1.57050        1.20124
B          0.35076       -0.00743       -0.89174
