45
isomer_0867.log	Energy: -113522.4082925
B          2.18410        1.31614       -0.47443
B          2.09382        2.89057        0.49829
B          0.78665        3.76496        0.66930
B         -0.62986        3.32321       -0.25592
B          0.86898        1.23280       -1.54303
B         -1.92360        0.83890       -0.90977
B         -2.01691        3.88249        0.58399
B          3.79170        0.70539       -0.23555
B         -2.06715        2.51396       -0.61771
B          3.51374        2.23426        0.31586
B         -0.63856        4.36676        0.95080
B         -3.40084        3.08167        0.31116
B         -3.35399        1.53768       -0.26064
B         -4.71939        0.48806       -0.12508
B         -0.06990       -1.50491       -1.08915
B         -1.30978       -2.38270       -0.33897
B         -2.94916       -1.89221       -0.37745
B         -4.36495       -1.10360        0.22174
B         -4.01495       -2.73775        0.67105
B         -2.55745       -3.31724        0.30472
B         -1.00808       -3.92875        0.27913
B          0.11756       -2.58131        0.67334
B          0.46996       -4.33038        0.16253
B          2.92748       -2.29030        0.30777
B          1.68485       -3.41594        0.09132
B          2.68610       -0.64521       -0.21196
B          4.10337       -1.75540        1.06043
B          4.25055       -1.00570       -0.41263
B          1.34852       -1.76779       -0.10553
B          0.93281        2.59660       -0.54897
B         -3.34017       -0.19460       -0.76597
B          1.20589       -0.19929       -0.90875
B         -4.65190        2.12847        0.63853
B          4.96803        1.74286        0.40165
B          5.42772        0.11618       -0.19297
B          5.54301       -1.18212        0.93684
B          6.76577       -0.32006        0.80957
B          6.30877        1.04634        0.83257
B         -1.71896       -0.78749       -1.11000
B          0.25449       -3.11830       -1.02719
B         -0.61253        1.99967       -1.29941
B         -5.54769        1.02787        1.14862
B         -5.64339       -0.53271        1.16133
B         -5.27903       -2.01610        1.16878
B         -0.41564        0.17499       -1.38826
