45
isomer_0869.log	Energy: -113693.9041749
B          3.17614        0.50122       -0.34056
B          3.37258        2.13257        0.14888
B          2.25327        3.22423        0.26961
B          0.63999        2.73144       -0.19694
B          1.56328       -0.19647       -0.61004
B         -1.43592        0.79752       -0.80166
B         -0.45512        3.99007        0.21842
B          4.67401       -0.17404       -1.26459
B         -0.95287        2.44887       -0.49710
B          4.65883        1.11612        0.35777
B          1.02705        4.15832        0.44849
B         -2.05615        3.57961        0.07380
B         -2.56069        2.11706       -0.43755
B         -4.23718        1.66954       -0.27452
B         -0.80583       -1.98361       -1.40112
B         -2.34336       -2.37706       -0.72780
B         -3.43653       -1.17963       -0.32008
B         -4.55831        0.04913        0.09832
B         -4.93560       -1.55438        0.51941
B         -3.74689       -2.65070        0.22720
B         -2.44426       -3.49800        0.64185
B         -0.95125       -3.30049       -0.20881
B         -1.14725       -3.86780        1.28005
B          1.70992       -2.64746        0.90235
B          0.31522       -3.39358        1.03677
B          2.16698       -2.08970       -0.75411
B          2.43495       -1.11965        0.81640
B          3.41886       -1.08840       -0.88469
B          0.71690       -2.89737       -0.57468
B          1.88717        1.60645       -0.35029
B         -3.13796        0.48720       -0.75092
B          0.76530       -1.46661       -1.52419
B         -3.60855        3.17495        0.37800
B          5.98977        0.29555       -0.62530
B          4.79511       -0.74095        0.29355
B          3.66071       -0.28313        1.45978
B          5.09036        0.05766        1.81716
B          6.20176        0.37715        0.84135
B         -1.95481       -0.74338       -1.16005
B          0.70464       -1.36036        0.43424
B          0.25903        1.21200       -0.65945
B         -4.91259        2.55004        0.86839
B         -5.59805        1.15966        0.84977
B         -5.87317       -0.38336        0.85396
B         -0.32951       -0.44026       -0.47108
