45
isomer_0087.log	Energy: -112660.1258657
B          2.54912        1.70492       -0.42453
B          2.53679        3.34260       -0.04316
B          1.12793        4.17019        0.19563
B         -0.32565        3.33599       -0.36010
B          1.09218        0.81089       -0.73589
B         -1.78228        0.83583       -0.83085
B         -1.71950        4.11866        0.32470
B          4.00894        0.83312       -0.34678
B         -1.70755        2.43983       -0.26868
B          3.94507        2.52464        0.11116
B         -0.29621        4.78446        0.46943
B         -3.15007        3.26934        0.33364
B         -3.17203        1.64832       -0.23420
B         -4.63208        0.83277        0.25695
B         -0.34367       -1.71802       -0.89458
B         -1.72719       -2.41586       -0.27357
B         -3.18522       -1.61260       -0.23748
B         -4.63862       -0.78626        0.25532
B         -4.47815       -2.34481        0.49953
B         -3.17638       -3.23489        0.32709
B         -1.75272       -4.09573        0.31644
B         -0.35258       -3.32298       -0.36679
B         -0.33486       -4.77331        0.45981
B          2.50971       -3.35339       -0.04989
B          1.09420       -4.17003        0.18724
B          2.53529       -1.71509       -0.42796
B          3.92455       -2.54715        0.10606
B          4.00211       -0.85528       -0.34847
B          1.10238       -2.53342       -0.59615
B          1.12288        2.53515       -0.59105
B         -3.26025        0.11859       -0.63265
B          1.08563       -0.80869       -0.73752
B         -4.45901        2.38948        0.50429
B          5.26440        1.71404        0.61875
B          5.25570        0.08313        0.38318
B          5.25040       -1.74827        0.61527
B          6.41758       -0.79879        1.22227
B          6.42386        0.75392        1.22384
B         -1.78894       -0.81018       -0.83250
B          3.13075       -0.06508       -0.51312
B         -0.32971        1.73207       -0.89111
B         -5.97117        1.68434        0.71279
B         -6.17336       -0.02816        0.77544
B         -5.98260       -1.75893        0.77994
B          0.36035       -0.16536       -0.04174
