45
isomer_0870.log	Energy: -113584.6033608
B          2.40839       -1.66748        0.65778
B          2.43964       -3.35036        0.36184
B          1.21364       -4.27496        0.67060
B         -0.23049       -3.43988        0.97685
B          1.88270        0.03396        0.18280
B         -1.45662       -0.84402        0.53731
B         -1.53627       -4.26372        0.14555
B          3.38731       -0.82639       -0.32494
B         -1.53286       -2.54335        0.45382
B          3.62819       -2.46722       -0.29589
B         -0.17792       -4.92636        0.38476
B         -2.84899       -3.37053       -0.22509
B         -2.89086       -1.73884       -0.00183
B         -4.24814       -0.87016       -0.50743
B         -0.27254        1.71845        1.27474
B         -1.59901        2.50970        0.52853
B         -2.90598        1.69077       -0.01512
B         -4.24502        0.79889       -0.52879
B         -4.13323        2.48275       -0.92113
B         -2.91878        3.32256       -0.17626
B         -1.62507        4.23294        0.19835
B         -0.28910        3.43377        0.98874
B         -0.28652        4.92152        0.39835
B          2.34428        3.39614        0.26795
B          1.11706        4.29928        0.63113
B          2.30079        1.71277        0.53478
B          3.54981        2.54187       -0.39058
B          3.43348        0.91082       -0.32619
B          1.21499        2.64466        1.32254
B          1.27071       -2.63580        1.37476
B         -2.98457       -0.02653        0.26783
B          1.21307        0.87473        1.66220
B         -4.07992       -2.55002       -0.93680
B          4.63076       -1.68594       -1.24659
B          4.53488        0.01376       -1.18850
B          4.60804        1.73362       -1.28316
B          5.50270        0.76809       -2.20168
B          5.50552       -0.74547       -2.19092
B         -1.46510        0.82359        0.55409
B          0.11509        0.04091        0.47136
B         -0.24219       -1.72738        1.21178
B         -5.10387       -1.60988       -1.60301
B         -5.30102       -0.04412       -1.63064
B         -5.13227        1.53451       -1.60190
B          1.20527       -0.83164        1.53798
