45
isomer_0872.log	Energy: -113416.8712092
B         -2.19567        1.42984        0.23288
B         -2.39132        3.14259        0.12599
B         -1.11310        4.01790       -0.12220
B          0.35063        3.47317        0.57411
B         -0.46627        0.82617        0.42188
B          1.66144        0.89242        0.88017
B          1.66802        4.12080       -0.39901
B         -3.82762        0.81554        0.39180
B          1.78590        2.60179        0.41971
B         -3.72366        2.37324       -0.14233
B          0.25486        4.65752       -0.49051
B          3.05755        3.26866       -0.40741
B          3.11751        1.71548        0.12284
B          4.50285        0.79340       -0.18601
B          0.32708       -1.63504        1.02448
B          1.73011       -2.44570        0.64038
B          3.16640       -1.67957        0.40438
B          4.60370       -0.85000        0.06560
B          4.39395       -2.50638       -0.45280
B          3.08561       -3.28202        0.00976
B          1.72038       -4.12577       -0.07853
B          0.32239       -3.31658        0.48799
B          0.35083       -4.69258       -0.31329
B         -2.41422       -3.20110       -0.32517
B         -1.07352       -4.01254       -0.20380
B         -2.29315       -1.45145       -0.29961
B         -3.78137       -2.45818       -0.53388
B         -3.89892       -0.97908        0.17566
B         -1.14909       -2.44144        0.50075
B         -1.03811        2.51601        0.84096
B          3.18782        0.05790        0.62827
B         -1.31063       -0.18066       -0.34217
B          4.39141        2.40719       -0.82901
B         -5.09936        1.70648       -0.43821
B         -5.11407        0.01006       -0.39436
B         -5.13107       -1.66090       -0.78958
B         -6.34504       -0.65407       -1.13751
B         -6.35129        0.84156       -0.94738
B          1.67854       -0.75621        0.83080
B         -2.57813       -0.13618        0.98150
B          0.46948        1.91714        1.27790
B          5.48855        1.46655       -1.25287
B          5.68562       -0.08410       -1.12408
B          5.47671       -1.59899       -1.04763
B         -1.18170       -0.90289        1.21953
