45
isomer_0874.log	Energy: -113353.0207578
B         -2.27651        1.52747        0.46536
B         -2.25718        3.28427       -0.28647
B         -0.95686        4.06902       -0.43335
B          0.50964        3.57880        0.53335
B         -0.88800        1.08065        1.09417
B          1.67097        0.77322        1.02805
B          1.86643        3.97535       -0.48866
B         -3.76554        0.90130        0.12349
B          1.83351        2.48459        0.38407
B         -3.52010        2.38733       -0.42510
B          0.48171        4.51375       -0.75338
B          3.18503        3.06875       -0.36661
B          3.10389        1.51805        0.15288
B          4.35709        0.51928       -0.39057
B          0.20934       -1.89983        1.11227
B          1.52353       -2.64623        0.41160
B          2.93596       -1.89048        0.14507
B          4.40465       -1.10462       -0.13208
B          4.11832       -2.70734       -0.79375
B          2.73980       -3.46339       -0.39028
B          1.30332       -4.17926       -0.40967
B         -0.03271       -3.34524        0.43996
B         -0.15023       -4.58762       -0.55708
B         -2.77450       -3.16930        0.01400
B         -1.50046       -3.93050       -0.21554
B         -2.76025       -1.54227        0.63042
B         -4.10109       -2.36306       -0.10514
B         -4.12089       -0.77428        0.35135
B         -1.33356       -2.18021        0.59313
B         -0.98385        2.66728        0.50567
B          3.10711       -0.17402        0.50907
B         -1.77272       -0.34084        0.85978
B          4.50013        2.18143       -0.74052
B         -4.90588        1.77281       -0.94984
B         -5.01994        0.12407       -0.62404
B         -5.38887       -1.51123       -0.60328
B         -6.31359       -0.51112       -1.38178
B         -6.08727        0.97574       -1.53444
B          1.60031       -0.94956        0.84964
B          0.55212        0.88189        2.27353
B          0.48041        2.20830        1.44175
B          5.57485        1.22758       -1.17250
B          5.60330       -0.32310       -1.24754
B          5.22504       -1.81801       -1.31540
B          0.02355       -0.30942        1.39843
