45
isomer_0875.log	Energy: -113458.7463324
B          2.54887        1.66159       -0.63449
B          2.53760        3.38246       -0.05440
B          1.18938        4.14676        0.01958
B         -0.27420        3.43708       -0.65523
B          1.20203        0.93728       -1.06883
B         -1.74967        0.92391       -0.98577
B         -1.64736        4.15919        0.19848
B          3.90570        0.91266       -0.15280
B         -1.70944        2.56979       -0.47599
B          3.79817        2.51409        0.20220
B         -0.22358        4.70756        0.31468
B         -3.01539        3.32292        0.26811
B         -3.08758        1.74698       -0.22368
B         -4.35934        0.78821        0.39918
B         -0.28825       -1.73401       -1.45971
B         -1.40874       -2.41401       -0.04877
B         -3.00017       -1.71940       -0.11012
B         -4.46120       -0.86757        0.11055
B         -4.20771       -2.50223        0.76427
B         -2.87351       -3.28700        0.30071
B         -1.55613       -4.14165        0.00479
B         -0.23180       -3.33028       -0.94190
B         -0.18137       -4.71753       -0.08043
B          2.52355       -3.31434        0.04877
B          1.22582       -4.12616       -0.18923
B          2.56761       -1.60813       -0.43688
B          3.80432       -2.45346        0.31233
B          3.89357       -0.85374       -0.10236
B          1.08633       -2.40841       -0.25793
B          1.20110        2.57746       -0.74593
B         -3.14975       -0.00027       -0.49971
B          1.21643       -0.74000       -0.83226
B         -4.33401        2.46534        0.76541
B          5.09265        1.69013        0.77221
B          5.15245        0.03597        0.44950
B          5.11832       -1.60921        0.86962
B          6.13200       -0.69939        1.55594
B          6.12653        0.79723        1.52123
B         -1.57900       -0.75304       -0.51702
B         -0.09988       -1.25405        0.23318
B         -0.32658        1.81913       -1.21151
B         -5.42715        1.53685        1.28039
B         -5.57191       -0.04019        1.27388
B         -5.31124       -1.56247        1.26665
B         -0.24744        0.00396       -1.24670
