45
isomer_0876.log	Energy: -112497.5843866
B         -2.59417       -1.53459       -0.51784
B         -2.63473       -3.17699       -0.15937
B         -1.25373       -4.04998        0.08047
B          0.22947       -3.25255       -0.45041
B         -1.10811       -0.68082       -0.80351
B          1.76506       -0.79133       -0.87293
B          1.59261       -4.08633        0.23587
B         -4.02775       -0.62021       -0.44102
B          1.63679       -2.39991       -0.33400
B         -4.01914       -2.31902       -0.00628
B          0.14863       -4.71072        0.35843
B          3.04795       -3.28084        0.26959
B          3.12405       -1.65357       -0.27525
B          4.60328       -0.88936        0.24041
B          0.40464        1.80548       -0.91380
B          1.80262        2.45258       -0.27064
B          3.23541        1.60519       -0.23270
B          4.65858        0.72860        0.26154
B          4.54280        2.28779        0.52612
B          3.27008        3.21909        0.35446
B          1.87315        4.12264        0.34306
B          0.45688        3.40203       -0.36351
B          0.47504        4.84073        0.48315
B         -2.40605        3.51459       -0.07199
B         -0.96890        4.28473        0.18930
B         -2.47737        1.88316       -0.47321
B         -3.84593        2.74942        0.05990
B         -3.97009        1.06708       -0.41899
B         -1.01896        2.66004       -0.61700
B         -1.19206       -2.40518       -0.68314
B          3.26201       -0.12188       -0.65140
B         -1.05280        0.93769       -0.78238
B          4.38111       -2.44338        0.46434
B         -5.31820       -1.47596        0.50072
B         -5.25819        0.15702        0.28813
B         -5.19996        1.98406        0.54590
B         -6.40086        1.06204        1.12901
B         -6.45388       -0.48964        1.10875
B          1.82128        0.85360       -0.85145
B         -2.30030       -2.92594        1.09944
B          0.28681       -1.64234       -0.95882
B          5.91178       -1.78720        0.69631
B          6.16484       -0.08261        0.78477
B          6.02623        1.65290        0.81182
B         -1.21994       -0.45012        0.31816
