45
isomer_0877.log	Energy: -113675.8859195
B          2.56329        1.73019       -0.53017
B          2.51437        3.30362        0.03697
B          1.15754        4.14897        0.10902
B         -0.26852        3.40331       -0.53929
B          1.17030        0.85109       -1.06791
B         -1.71728        0.84359       -0.78718
B         -1.64132        4.16971        0.25876
B          3.98436        0.84505       -0.22505
B         -1.72381        2.55142       -0.43024
B          3.86983        2.48442        0.27626
B         -0.21906        4.74791        0.35321
B         -3.00816        3.34106        0.27818
B         -3.12839        1.73371       -0.22053
B         -4.54666        0.89462        0.14493
B         -0.36969       -1.82517       -1.11740
B         -1.80257       -2.53265       -0.48875
B         -3.17349       -1.67988       -0.26019
B         -4.53237       -0.79736        0.23778
B         -4.40743       -2.44401        0.74917
B         -3.09257       -3.28017        0.26580
B         -1.74889       -4.14422        0.24569
B         -0.35147       -3.38473       -0.51450
B         -0.34253       -4.74565        0.35205
B          2.42702       -3.33489        0.04001
B          1.04678       -4.15719        0.12327
B          2.50842       -1.75970       -0.48806
B          3.80912       -2.53741        0.29291
B          3.95624       -0.91105       -0.21610
B          1.11877       -2.59015       -0.76481
B          1.18633        2.57780       -0.78902
B         -3.29345        0.01625       -0.60930
B          1.12941       -0.84866       -1.04134
B         -4.32589        2.49994        0.77042
B          5.10467        1.65098        0.84530
B          5.19534       -0.04518        0.52285
B          5.06027       -1.73938        0.86447
B          6.08442       -0.81489        1.61262
B          6.10501        0.70575        1.60545
B         -1.78675       -0.83034       -0.91210
B          2.61016       -0.01615       -0.74677
B         -0.31244        1.83095       -1.08773
B         -5.37235        1.56984        1.33847
B         -5.62005        0.03390        1.30459
B         -5.47390       -1.51818        1.30106
B         -0.34259        0.00294       -1.09278
