45
isomer_0878.log	Energy: -113675.8852022
B          2.56283        1.73044       -0.52993
B          2.51294        3.30342        0.03735
B          1.15571        4.14865        0.11038
B         -0.26948        3.40200       -0.53667
B          1.17019        0.85007       -1.06863
B         -1.71880        0.84354       -0.79039
B         -1.64319        4.16935        0.25919
B          3.98442        0.84595       -0.22504
B         -1.72552        2.55117       -0.43186
B          3.86940        2.48536        0.27581
B         -0.22111        4.74750        0.35434
B         -3.00974        3.33993        0.27850
B         -3.12968        1.73283       -0.22140
B         -4.54707        0.89319        0.14610
B         -0.36879       -1.82538       -1.11670
B         -1.80162       -2.53270       -0.48872
B         -3.17333       -1.68082       -0.25972
B         -4.53300       -0.79864        0.23529
B         -4.40642       -2.44480        0.74920
B         -3.09132       -3.28116        0.26588
B         -1.74740       -4.14422        0.24693
B         -0.35017       -3.38481       -0.51342
B         -0.34080       -4.74553        0.35345
B          2.42830       -3.33409        0.04063
B          1.04846       -4.15673        0.12374
B          2.50969       -1.75891       -0.48844
B          3.81023       -2.53645        0.29308
B          3.95696       -0.90979       -0.21569
B          1.11994       -2.58965       -0.76494
B          1.18550        2.57729       -0.78868
B         -3.29386        0.01591       -0.60965
B          1.13014       -0.84900       -1.04245
B         -4.32791        2.49921        0.76995
B          5.10475        1.65264        0.84481
B          5.19660       -0.04368        0.52164
B          5.06143       -1.73781        0.86437
B          6.08517       -0.81273        1.61196
B          6.10526        0.70791        1.60469
B         -1.78542       -0.83036       -0.90986
B          2.61033       -0.01579       -0.74624
B         -0.31327        1.83057       -1.08793
B         -5.37489        1.56929        1.33760
B         -5.62033        0.03282        1.30421
B         -5.47255       -1.51883        1.30125
B         -0.34258        0.00281       -1.09399
