45
isomer_0088.log	Energy: -113455.8049708
B         -2.23649        1.18510        0.47486
B         -2.22087        2.68836       -0.76686
B         -0.89224        3.42743       -1.15883
B          0.49973        3.35092       -0.03916
B         -0.86544        1.16105        1.37956
B          1.83618        0.88803        1.25574
B          1.93627        3.60444       -1.01955
B         -3.84597        0.62659        0.36770
B          1.92939        2.46743        0.28392
B         -3.56531        2.05604       -0.39933
B          0.53764        3.89811       -1.52938
B          3.31012        2.94374       -0.50338
B          3.23935        1.50884        0.30923
B          4.53477        0.48009       -0.07006
B          0.06268       -1.48562        0.62240
B          1.46229       -2.42370        0.16937
B          2.97838       -1.88716        0.44731
B          4.53593       -1.17372        0.26193
B          4.22164       -2.76073       -0.40834
B          2.73835       -3.36905       -0.30361
B          1.23353       -3.95047       -0.59235
B         -0.12607       -3.04263        0.04769
B         -0.20723       -4.23602       -0.98241
B         -2.84843       -2.63276       -0.64059
B         -1.56534       -3.47043       -0.77853
B         -2.87027       -0.94135        0.34842
B         -4.17897       -2.03694       -0.30486
B         -4.43404       -0.93120        0.81743
B         -1.47478       -1.87971       -0.07972
B         -0.97205        2.40434        0.17112
B          3.21061       -0.16601        0.76645
B         -1.32627       -0.36245        0.60310
B          4.69611        2.08111       -0.57031
B         -5.06283        1.63748       -0.45377
B         -5.53059        0.18898        0.30184
B         -5.72347       -1.43294       -0.13853
B         -6.75711       -0.45603       -0.65772
B         -6.39378        0.96152       -0.85417
B          1.64019       -0.82027        0.75719
B          0.61074        1.14897        2.36153
B          0.49096        2.24328        1.19309
B          5.82522        1.10092       -0.77764
B          5.84449       -0.46941       -0.71739
B          5.47192       -1.96822       -0.75997
B          0.25107       -0.15595        1.56658
