45
isomer_0880.log	Energy: -113614.2285986
B          2.65586        1.69490       -0.60847
B          2.64258        3.27907       -0.01630
B          1.25696        4.11632        0.13251
B         -0.21766        3.36013       -0.37137
B          1.19417        0.87270       -1.03053
B         -1.75024        0.83257       -0.86190
B         -1.55050        4.12886        0.36565
B          4.01093        0.79054       -0.16598
B         -1.68378        2.50430       -0.39355
B          3.99346        2.44814        0.17400
B         -0.13381        4.72273        0.42928
B         -2.94726        3.26994        0.41052
B         -3.12225        1.76299       -0.17803
B         -4.55499        0.91104        0.23380
B         -0.39131       -1.89191       -1.19748
B         -1.88037       -2.49139       -0.71425
B         -3.24172       -1.64596       -0.38014
B         -4.66944       -0.75932       -0.02975
B         -4.49623       -2.35565        0.60570
B         -3.15698       -3.17886        0.21029
B         -1.84354       -4.04441        0.29942
B         -0.44644       -3.39506       -0.45896
B         -0.46899       -4.62566        0.54519
B          2.35433       -3.32639        0.21090
B          0.95042       -4.09365        0.30693
B          2.43486       -1.76615       -0.27793
B          3.77008       -2.53926        0.43720
B          3.91068       -0.93585        0.00648
B          1.01790       -2.53033       -0.51996
B          1.24026        2.53325       -0.64507
B         -3.36340        0.09357       -0.66293
B          1.08106       -0.77241       -0.75061
B         -4.36706        2.52694        0.81960
B          5.32498        1.59242        0.61418
B          5.33822       -0.11738        0.31686
B          5.19146       -1.81426        0.71363
B          6.38328       -0.90595        1.21751
B          6.42339        0.61223        1.21699
B         -1.89260       -0.80814       -1.03173
B          2.61034       -0.04401       -0.71148
B         -0.28088        1.75232       -0.96510
B         -5.57401        1.67626        1.19419
B         -5.80969        0.13974        1.15724
B         -5.57399       -1.39607        1.11693
B         -0.36809       -0.18287       -0.76345
