45
isomer_0881.log	Energy: -113675.8869379
B          2.50945        1.75967       -0.48858
B          2.42794        3.33449        0.04019
B          1.04795        4.15706        0.12333
B         -0.35060        3.38485       -0.51456
B          1.13007        0.84863       -1.04235
B         -1.78589        0.83036       -0.91048
B         -1.74763        4.14429        0.24629
B          3.95654        0.91010       -0.21568
B         -1.80174        2.53273       -0.48843
B          3.81025        2.53698        0.29250
B         -0.34112        4.74587        0.35203
B         -3.09151        3.28064        0.26623
B         -3.17317        1.68045       -0.26008
B         -4.53237        0.79831        0.23695
B         -0.31307       -1.83077       -1.08762
B         -1.72495       -2.55128       -0.43115
B         -3.12928       -1.73308       -0.22140
B         -4.54680       -0.89368        0.14583
B         -4.32672       -2.49920        0.77064
B         -3.00889       -3.34006        0.27875
B         -1.64244       -4.16956        0.25853
B         -0.26937       -3.40280       -0.53855
B         -0.22040       -4.74792        0.35340
B          2.51319       -3.30377        0.03702
B          1.15607       -4.14903        0.10945
B          2.56298       -1.73071       -0.53024
B          3.86948       -2.48527        0.27578
B          3.98399       -0.84560       -0.22467
B          1.18549       -2.57761       -0.78865
B          1.11958        2.58983       -0.76485
B         -3.29366       -0.01592       -0.60917
B          1.16999       -0.85072       -1.06862
B         -4.40669        2.44471        0.74924
B          5.06110        1.73832        0.86446
B          5.19573        0.04406        0.52268
B          5.10440       -1.65217        0.84529
B          6.10455       -0.70721        1.60585
B          6.08445        0.81349        1.61293
B         -1.71816       -0.84344       -0.78899
B          2.60970        0.01599       -0.74607
B         -0.36878        1.82528       -1.11685
B         -5.47302        1.51892        1.30143
B         -5.62008       -0.03305        1.30450
B         -5.37373       -1.56939        1.33823
B         -0.34281       -0.00279       -1.09454
