45
isomer_0882.log	Energy: -113549.1888599
B          2.82700        0.96709       -0.50019
B          2.81534        2.70922        0.03524
B          1.64189        3.70934        0.05060
B          0.12746        3.18293       -0.57669
B          1.28235        0.50788       -1.24948
B         -1.71293        0.94885       -1.12550
B         -1.10405        4.16111        0.15864
B          4.51067        0.62969       -0.60357
B         -1.41154        2.54854       -0.53573
B          4.20076        2.01703        0.16530
B          0.35552        4.55693        0.22826
B         -2.57786        3.48154        0.23714
B         -2.93120        1.98139       -0.33886
B         -4.26455        1.16670        0.37504
B         -0.61304       -1.79328       -1.44324
B         -1.62735       -2.22532       -0.09626
B         -3.13361       -1.46541       -0.06319
B         -4.51721       -0.47415        0.22674
B         -4.27785       -2.10285        0.98925
B         -3.00891       -2.99021        0.52883
B         -1.63002       -3.89685        0.31272
B         -0.52424       -3.41570       -1.19236
B         -0.31474       -4.59361        0.03423
B          1.53411       -2.47729        0.46143
B          1.01349       -3.89836       -0.36131
B          2.06179       -0.96629       -0.47920
B          2.80660       -1.68063        0.92682
B          3.64938       -0.67381       -0.15898
B          1.04018       -2.47078       -1.19698
B          1.52506        2.11467       -0.75520
B         -3.27264        0.24858       -0.63658
B          0.95494       -0.96105       -1.76758
B         -3.96025        2.81469        0.79814
B          5.48401        1.29449        0.69721
B          5.20191       -0.40223        0.50911
B          4.19261       -1.43350        1.48767
B          5.58700       -0.99132        1.98627
B          6.22909        0.26874        1.60394
B         -1.84271       -0.69803       -0.95084
B         -0.12845       -2.77511        0.45294
B         -0.09826        1.65512       -1.14687
B         -5.08531        2.02580        1.43758
B         -5.35520        0.49379        1.50768
B         -5.22455       -1.06405        1.53742
B         -0.42470       -0.03429       -1.56958
