45
isomer_0883.log	Energy: -113521.6211371
B         -2.60242       -1.89958       -1.00291
B         -2.23369       -3.11647        0.48187
B         -0.86401       -3.99551        0.34817
B          0.42830       -3.31932       -0.48844
B         -1.00425       -0.80470       -0.69951
B          1.76209       -0.74069       -0.78732
B          1.91613       -4.05507        0.13613
B         -3.86834       -0.98786       -0.40743
B          1.87056       -2.42119       -0.53155
B         -3.58851       -2.36666        0.62701
B          0.51942       -4.61704        0.44306
B          3.25519       -3.22169        0.01912
B          3.31849       -1.62186       -0.44693
B          4.71921       -0.73390       -0.18115
B          0.35010        1.75285       -0.97255
B          1.69634        2.51835       -0.22013
B          3.10749        1.74777       -0.11492
B          4.55206        0.90551        0.18901
B          4.38662        2.50582        0.79401
B          2.98688        3.30676        0.46799
B          1.58784        4.10891        0.45541
B          0.26826        3.40392       -0.43509
B          0.14920        4.69020        0.48778
B         -2.57635        3.35861       -0.19268
B         -1.22622        4.14342        0.05747
B         -2.52823        1.72739       -0.57498
B         -3.94037        2.50075       -0.03573
B         -3.96331        0.83233       -0.35293
B         -1.16130        2.57958       -0.80514
B         -1.09533       -2.50620       -0.67296
B          3.28762        0.09893       -0.66244
B         -1.02363        0.88221       -0.83141
B          4.59309       -2.37771        0.40842
B         -5.04142       -1.69966        0.77442
B         -5.25142       -0.11061        0.16034
B         -5.14140        1.61086        0.53626
B         -6.15058        0.63091        1.27205
B         -6.21040       -0.85726        1.26756
B          1.74922        0.88626       -0.82555
B         -2.12497       -1.38845        0.59048
B          0.44680       -1.64376       -0.91781
B          5.65335       -1.42181        0.93438
B          5.84281        0.09859        0.99331
B          5.59364        1.63887        1.13149
B         -2.44455       -0.02178       -0.41618
