45
isomer_0888.log	Energy: -113406.3138048
B          2.80869       -0.95330        1.36928
B          3.67457       -2.17125       -0.17591
B          2.26762       -3.15995       -0.00585
B          0.40030       -2.76198        0.18232
B          1.20449       -0.47998        1.49687
B         -1.63508       -1.24927        1.23353
B         -0.30165       -3.20453       -1.25670
B          4.03302        0.06004        0.77153
B         -0.91474       -1.75350       -0.31151
B          4.36902       -1.50319        1.15552
B          1.16243       -3.56190       -0.99761
B         -1.85357       -2.85298       -1.33554
B         -2.57034       -2.01225       -0.10178
B         -4.21225       -1.49805       -0.33547
B         -0.69932        1.48591        0.80488
B         -2.26275        2.02155        0.64573
B         -3.57246        0.99696        0.65796
B         -4.84113       -0.15083        0.48630
B         -5.01066        1.57945       -0.01574
B         -3.79335        2.57800        0.25935
B         -2.59504        3.62731       -0.08214
B         -1.01979        3.12265        0.29652
B         -1.34080        4.38801       -0.56813
B          1.70245        3.44889       -0.46540
B          0.18839        4.00715       -0.53469
B          2.12332        1.95969        0.32830
B          3.16397        2.85427       -0.71115
B          3.69150        1.59498        0.27333
B          0.57659        2.53411        0.29258
B          1.51209       -2.10856        1.25662
B         -3.27176       -0.68702        0.85607
B          0.88657        0.89959        0.85515
B         -3.40972       -2.60915       -1.46797
B          4.89593       -1.07236       -0.46080
B          4.56513        0.59558       -0.72282
B          4.41398        2.17334       -1.32739
B          5.49194        1.19827       -1.89607
B          5.69028       -0.23129       -1.55157
B         -1.92108        0.38965        1.00148
B          3.15371       -2.59638        1.39408
B         -0.12173       -1.80302        1.48802
B         -4.89941       -2.20126       -1.58209
B         -5.64145       -0.98180       -1.04612
B         -5.87111        0.46484       -0.56349
B         -0.21679       -0.37644        0.41051
