45
isomer_0889.log	Energy: -113420.1969109
B          2.51817       -1.75016        0.30365
B          2.38184       -3.34682       -0.28966
B          0.93960       -4.13258       -0.33676
B         -0.40911       -3.29660        0.25997
B          1.19431       -0.79928        0.71989
B         -1.68552       -0.69269        1.09510
B         -1.88465       -4.07637       -0.13204
B          3.90178       -0.98565        0.03297
B         -1.85132       -2.44334        0.57461
B          3.80087       -2.58757       -0.37417
B         -0.49433       -4.72616       -0.40181
B         -3.21320       -3.18185        0.01196
B         -3.19997       -1.54834        0.52592
B         -4.54477       -0.67885        0.02358
B         -0.22431        1.76579        0.93627
B         -1.53019        2.59128        0.18061
B         -2.93031        1.73473       -0.06552
B         -4.44350        1.01488       -0.08431
B         -4.19998        2.54207       -0.89346
B         -2.82050        3.37235       -0.50024
B         -1.44483        4.17931       -0.40149
B         -0.12331        3.42206        0.57611
B          0.01369        4.69123       -0.41918
B          2.69774        3.19419        0.06976
B          1.35235        4.09613       -0.04235
B          2.67490        1.59141        0.73012
B          3.95788        2.28264       -0.10748
B          3.99361        0.70322        0.29287
B          1.31080        2.51656        0.66575
B          1.10770       -2.54747        0.37963
B         -3.15137        0.11932        0.59556
B          1.21366        0.78684        1.02624
B         -4.56477       -2.37560       -0.35745
B          5.17709       -1.79735       -0.77293
B          5.31505       -0.19566       -0.14238
B          5.34431        1.45827       -0.48120
B          6.41478        0.59940       -1.11437
B          6.27849       -0.88115       -1.30362
B         -1.47949        0.81885        0.14637
B         -0.28208        0.10744        1.62146
B         -0.33052       -1.68532        0.77243
B         -5.61059       -1.44161       -0.91159
B         -5.66457        0.10020       -1.04726
B         -5.33440        1.62414       -1.26208
B         -0.17104       -0.14188       -0.09949
