45
isomer_0089.log	Energy: -113458.2558892
B          2.64375       -1.53852        0.56750
B          2.62361       -3.24319       -0.00827
B          1.32226       -4.06070        0.05477
B         -0.19703       -3.32408        0.78144
B          1.22203       -0.75473        0.92389
B         -1.67657       -0.91991        0.97170
B         -1.46662       -4.09875       -0.23363
B          3.98402       -0.77968        0.27690
B         -1.34332       -2.35042       -0.15244
B          3.90275       -2.35368       -0.18838
B         -0.07656       -4.64464       -0.18055
B         -2.80137       -3.27387       -0.45542
B         -2.97159       -1.80249        0.18523
B         -4.32245       -0.87377       -0.36236
B         -0.32562        1.78456        0.96905
B         -1.80308        2.54526        0.60250
B         -3.15428        1.67702        0.29285
B         -4.54901        0.73577        0.00243
B         -4.45217        2.41747       -0.53500
B         -3.11975        3.28265       -0.15881
B         -1.76691        4.13453       -0.21177
B         -0.33322        3.36832        0.39765
B         -0.35549        4.72106       -0.42055
B          2.46821        3.41494       -0.09262
B          1.08930        4.15969       -0.19832
B          2.55469        1.73139        0.65879
B          3.74020        2.56426       -0.27093
B          3.93484        0.98926        0.21605
B          1.14586        2.51063        0.42077
B          1.19202       -2.38506        0.38432
B         -3.18257       -0.08205        0.59033
B          1.22400        0.93884        1.04475
B         -4.16467       -2.51445       -0.85788
B          5.22807       -1.53181       -0.69830
B          5.21905        0.13137       -0.32866
B          5.06005        1.74185       -0.78704
B          6.12001        0.84039       -1.49529
B          6.22435       -0.64347       -1.40971
B         -1.74172        0.85440        0.86007
B         -0.25007        0.00494        1.08490
B         -0.29129       -1.81356        1.48260
B         -5.35929       -1.64048       -1.27641
B         -5.60957       -0.10940       -1.18519
B         -5.47516        1.45070       -1.08288
B         -0.10967       -1.26056       -0.17810
