45
isomer_0890.log	Energy: -113478.3282347
B         -2.52186        1.65850        0.56265
B         -2.48299        3.31987       -0.06112
B         -1.10717        4.10156       -0.27132
B          0.32507        3.38808        0.36066
B         -1.15822        0.90681        1.02163
B          1.78109        0.89370        0.94860
B          1.70828        4.14887       -0.40310
B         -3.93839        0.93109        0.28303
B          1.76400        2.55472        0.45367
B         -3.82574        2.51023       -0.11803
B          0.30478        4.69968       -0.56179
B          3.07490        3.29068       -0.34879
B          3.15477        1.74937        0.22913
B          4.49605        0.78727       -0.21957
B          0.17910       -1.60493        0.45717
B          1.65606       -2.47830        0.37294
B          3.11167       -1.70495        0.38638
B          4.57602       -0.85169        0.14953
B          4.38016       -2.46746       -0.46550
B          3.01655       -3.31069       -0.07787
B          1.64388       -4.13119       -0.13130
B          0.13115       -3.32190        0.58398
B          0.29142       -4.54156       -0.54275
B         -2.48811       -3.11709       -0.42244
B         -1.12900       -3.87792       -0.48320
B         -2.57690       -1.70080        0.62667
B         -3.84621       -2.29911       -0.38290
B         -3.94726       -0.81292        0.26479
B         -1.33493       -2.74493        1.07249
B         -1.16175        2.60767        0.63970
B          3.25764        0.04851        0.66812
B         -1.28207       -0.72648        0.73270
B          4.42559        2.45158       -0.72453
B         -5.21373        1.73192       -0.52419
B         -5.28467        0.08500       -0.10932
B         -5.22675       -1.51528       -0.64911
B         -6.31963       -0.59530       -1.22393
B         -6.31029        0.88015       -1.15656
B          1.66895       -0.75529        0.72334
B          0.24739        0.05880        1.05801
B          0.35007        1.86577        1.04879
B          5.56211        1.51682       -1.14155
B          5.72449       -0.02923       -1.06994
B          5.43975       -1.54876       -1.02360
B         -1.11529       -2.05087       -0.53155
