45
isomer_0891.log	Energy: -113420.2456608
B         -2.50888        1.74969        0.29442
B         -2.37048        3.34883       -0.29923
B         -0.92691        4.13418       -0.34333
B          0.41975        3.29771        0.25986
B         -1.18977        0.80334        0.72011
B          1.68891        0.68918        1.09961
B          1.89647        4.07244       -0.13220
B         -3.89840        0.99330        0.03251
B          1.85876        2.44198        0.58247
B         -3.79152        2.59188       -0.38181
B          0.50898        4.72410       -0.40737
B          3.22422        3.17684        0.01931
B          3.20361        1.54187        0.52682
B          4.54777        0.66818        0.02923
B          0.21902       -1.76520        0.93295
B          1.52196       -2.59515        0.17269
B          2.92091       -1.73449       -0.08115
B          4.44203       -1.02724       -0.08250
B          4.19174       -2.54964       -0.89929
B          2.80921       -3.37652       -0.50801
B          1.43193       -4.18247       -0.40497
B          0.11473       -3.42307        0.57827
B         -0.02825       -4.69056       -0.41787
B         -2.71043       -3.19312        0.07689
B         -1.36645       -4.09624       -0.03617
B         -2.68144       -1.58790        0.73306
B         -3.96817       -2.27639       -0.10104
B         -3.99637       -0.69514        0.29640
B         -1.31777       -2.51320        0.66210
B         -1.09899        2.55157        0.37340
B          3.14899       -0.12693        0.59300
B         -1.21846       -0.78346        1.01992
B          4.57540        2.36767       -0.34654
B         -5.17152        1.80575       -0.77485
B         -5.31346        0.20562       -0.13980
B         -5.35163       -1.44792       -0.47258
B         -6.41863       -0.58784       -1.10719
B         -6.27748        0.89173       -1.29932
B          1.47498       -0.81839        0.13951
B          0.17398        0.15115       -0.10148
B          0.33644        1.68744        0.78008
B          5.61866        1.43150       -0.90013
B          5.66629       -0.11027       -1.04123
B          5.33085       -1.63526       -1.26197
B          0.27947       -0.10956        1.61741
