45
isomer_0892.log	Energy: -112757.6163531
B         -2.54327        1.75402        0.39723
B         -2.50749        3.39412        0.03045
B         -1.09563        4.21309       -0.19216
B          0.34231        3.36410        0.36145
B         -1.09493        0.86113        0.70854
B          1.76831        0.83306        0.81922
B          1.74314        4.13268       -0.30744
B         -3.99805        0.89320        0.30484
B          1.71915        2.45144        0.26953
B         -3.91358        2.57884       -0.13631
B          0.33355        4.80350       -0.45014
B          3.16493        3.26479       -0.31899
B          3.16783        1.63995        0.23366
B          4.61841        0.80409       -0.25459
B          0.30428       -1.71953        0.85206
B          1.68294       -2.42694        0.23471
B          3.14362       -1.63705        0.21218
B          4.60302       -0.81998       -0.26417
B          4.43490       -2.38180       -0.52801
B          3.11492       -3.25404       -0.36438
B          1.68413       -4.09985       -0.36734
B          0.29250       -3.32283        0.31244
B          0.26281       -4.74997       -0.51908
B         -2.56298       -3.31730       -0.02175
B         -1.15779       -4.14594       -0.25371
B         -2.57726       -1.68508        0.36457
B         -3.96459       -2.48346       -0.17786
B         -4.01552       -0.80717        0.29152
B         -1.15383       -2.52328        0.53913
B         -1.11586        2.57971        0.57790
B          3.23697        0.09218        0.61981
B         -1.10450       -0.80269        0.69422
B          4.47600        2.37569       -0.49602
B         -5.23192        1.78815       -0.65809
B         -5.24425        0.15174       -0.43499
B         -5.26035       -1.66393       -0.68154
B         -6.39821       -0.69644       -1.28093
B         -6.39248        0.84479       -1.27322
B          1.75636       -0.82228        0.80699
B         -2.28616       -1.12821        1.81453
B          0.32921        1.75292        0.87820
B          5.95336        1.62697       -0.69582
B          6.12574       -0.06877       -0.76566
B          5.92229       -1.77069       -0.78555
B         -0.56206        0.12704       -0.09539
