45
isomer_0893.log	Energy: -112547.9865621
B          2.60743       -1.60583        0.37424
B          2.61539       -3.23767       -0.03149
B          1.21688       -4.07920       -0.28205
B         -0.24672       -3.27166        0.28661
B          1.13958       -0.73487        0.69946
B         -1.73429       -0.79725        0.79515
B         -1.63105       -4.06145       -0.40924
B          4.05617       -0.71474        0.30894
B         -1.63979       -2.39162        0.20910
B          4.01323       -2.39991       -0.17414
B         -0.19961       -4.70712       -0.56443
B         -3.07215       -3.23008       -0.40496
B         -3.11409       -1.61811        0.18699
B         -4.58452       -0.81369       -0.29139
B         -0.32774        1.77320        0.89639
B         -1.72024        2.46282        0.28639
B         -3.16812        1.64198        0.23889
B         -4.61134        0.80492       -0.26562
B         -4.47055        2.36883       -0.48662
B         -3.17992        3.27248       -0.30144
B         -1.76716        4.15085       -0.27849
B         -0.35706        3.38561        0.39260
B         -0.35798        4.84820       -0.41230
B          2.50445        3.45661        0.07508
B          1.07868        4.25889       -0.14930
B          2.55076        1.81331        0.42868
B          3.92919        2.67058       -0.09341
B          4.02819        0.97323        0.33581
B          1.10781        2.61102        0.60960
B          1.19179       -2.45626        0.52892
B         -3.22123       -0.09571        0.60823
B          1.11275        0.88429        0.72524
B         -4.39210       -2.36425       -0.56198
B          5.32201       -1.56536       -0.67010
B          5.29302        0.06162       -0.41023
B          5.26464        1.89606       -0.61499
B          6.44328        0.97043       -1.23653
B          6.46901       -0.58188       -1.26124
B         -1.76156        0.84834        0.82135
B          1.08006       -1.93146        2.10165
B         -0.27057       -1.67601        0.84148
B         -5.91310       -1.67509       -0.75936
B         -6.13676        0.03549       -0.79639
B         -5.96770        1.76838       -0.77516
B          0.82103       -0.94790       -0.51995
