45
isomer_0894.log	Energy: -112548.8216968
B          2.62390       -1.64861        0.33331
B          2.61800       -3.27759       -0.08381
B          1.21247       -4.10474       -0.34289
B         -0.24492       -3.28805        0.22865
B          1.16331       -0.76678        0.66185
B         -1.71119       -0.80396        0.75167
B         -1.63493       -4.06047       -0.47532
B          4.08071       -0.77016        0.27698
B         -1.62987       -2.39500        0.15467
B          4.02358       -2.45146       -0.21796
B         -0.20905       -4.71790       -0.63232
B         -3.06851       -3.21623       -0.46795
B         -3.09712       -1.60811        0.13519
B         -4.55933       -0.78718       -0.34033
B         -0.28181        1.75296        0.87355
B         -1.66687        2.45932        0.26575
B         -3.12197        1.65189        0.20979
B         -4.57166        0.83139       -0.30329
B         -4.41639        2.39548       -0.51308
B         -3.11806        3.28616       -0.31914
B         -1.69752        4.15160       -0.28739
B         -0.29566        3.36905        0.38099
B         -0.28187        4.83717       -0.41366
B          2.56698        3.41651        0.06938
B          1.14893        4.23313       -0.15208
B          2.59784        1.77043        0.41156
B          3.98493        2.61889       -0.10193
B          4.06784        0.91777        0.31560
B          1.16177        2.57981        0.59533
B          1.20038       -2.48733        0.47937
B         -3.19140       -0.08779        0.56686
B          1.15097        0.85234        0.69890
B         -4.38032       -2.33748       -0.62139
B          5.34077       -1.62529       -0.70559
B          5.32588        0.00003       -0.43441
B          5.31439        1.83604       -0.62638
B          6.48587        0.90421       -1.25216
B          6.49770       -0.64807       -1.28769
B         -1.72373        0.84159        0.78933
B          0.21481       -0.02231        0.61501
B         -0.25552       -1.69616        0.79462
B         -5.89468       -1.63330       -0.81682
B         -6.10290        0.07943       -0.84230
B         -5.91832        1.81055       -0.80863
B          0.29258       -2.16178        2.43817
