45
isomer_0898.log	Energy: -113510.9147770
B         -2.56194       -1.73956       -0.90650
B         -2.34085       -3.03954        0.29932
B         -0.92696       -3.86225        0.38265
B          0.40474       -3.28747       -0.50257
B         -1.03017       -0.79316       -0.96561
B          1.80949       -0.75519       -0.80114
B          1.84747       -4.00843        0.20098
B         -3.98187       -0.91932       -0.62820
B          1.87395       -2.42715       -0.55516
B         -3.84502       -2.63860        0.24971
B          0.43933       -4.50642        0.54611
B          3.22815       -3.22451        0.05867
B          3.33057       -1.65784       -0.44717
B          4.74313       -0.77989       -0.15986
B          0.36546        1.67562       -0.86252
B          1.73729        2.45692       -0.21648
B          3.20346        1.75632       -0.19187
B          4.56925        0.83420        0.23311
B          4.46782        2.47478        0.72345
B          3.05700        3.26657        0.41223
B          1.63796        4.09099        0.40095
B          0.32561        3.34651       -0.40577
B          0.22733        4.69315        0.41910
B         -2.52388        3.32763       -0.19011
B         -1.18354        4.10824        0.02878
B         -2.53379        1.62299       -0.47869
B         -3.89840        2.47968       -0.05477
B         -3.96136        0.82917       -0.55263
B         -1.14203        2.54488       -0.70328
B         -1.05876       -2.45544       -0.68079
B          3.32890        0.06332       -0.64406
B         -1.00936        0.80133       -0.72174
B          4.60383       -2.40757        0.43648
B         -4.84829       -1.63017        0.84280
B         -5.22047       -0.04566        0.17630
B         -5.14881        1.66862        0.48334
B         -6.13907        0.78731        1.24540
B         -5.90837       -0.65041        1.51273
B          1.76543        0.83828       -0.81917
B         -2.95522       -1.34497        0.82929
B          0.41683       -1.59813       -0.96349
B          5.66851       -1.47201        0.96626
B          5.89703        0.05871        0.99872
B          5.67887        1.59341        1.07796
B         -2.40925       -0.07495       -0.07275
