45
isomer_0090.log	Energy: -112882.7389889
B          2.28678        1.77554       -0.57428
B          2.25899        3.40288       -0.08865
B          0.82408        4.20546        0.15877
B         -0.60119        3.38367       -0.39477
B          0.80927        1.01543       -0.85757
B         -1.94167        0.79365       -0.87789
B         -2.00389        4.07991        0.33215
B          4.00458        0.91901       -0.41379
B         -1.97936        2.45405       -0.28423
B          3.63766        2.56480        0.08016
B         -0.57474        4.71458        0.45702
B         -3.35303        3.18398        0.36602
B         -3.34071        1.57224       -0.21469
B         -4.70485        0.64576        0.29689
B         -0.42689       -1.62254       -1.01066
B         -1.66770       -2.51627       -0.29171
B         -3.12334       -1.79474       -0.22523
B         -4.57730       -1.03056        0.28884
B         -4.38865       -2.62712        0.60751
B         -2.93987       -3.38882        0.36821
B         -1.52515       -4.12326        0.34490
B         -0.16993       -3.34791       -0.39409
B         -0.09905       -4.64612        0.44568
B          2.80936       -3.29026       -0.05328
B          1.33167       -4.04275        0.13394
B          3.11040       -1.62444       -0.41667
B          4.36369       -2.45605        0.17201
B          4.24577       -0.75052       -0.33864
B          1.16545       -2.56579       -0.65830
B          0.83699        2.65269       -0.66485
B         -3.33647       -0.05146       -0.62087
B          0.76795       -0.44751       -0.90711
B         -4.72522        2.26877        0.61784
B          5.03156        1.89524        0.64001
B          5.26739        0.22588        0.42514
B          5.48867       -1.51461        0.67232
B          6.39049       -0.42787        1.32465
B          6.21237        1.07505        1.33120
B         -1.83848       -0.89485       -0.88760
B          2.64729        0.48616        0.35550
B         -0.57015        1.79482       -0.95700
B         -5.96446        1.32019        0.81187
B         -6.00659       -0.28864        0.84168
B         -5.73501       -1.86287        0.85257
B          2.10325       -1.11479       -0.79300
