45
isomer_0900.log	Energy: -113373.7307904
B         -2.72311       -1.43890       -0.59809
B         -2.62168       -3.10113        0.04088
B         -1.54845       -4.06529        0.67245
B          0.09997       -3.29597       -0.62215
B         -1.29173       -0.58261       -0.99192
B          1.70965       -0.83647       -0.93279
B          1.38670       -3.99888        0.27899
B         -4.06169       -0.58195       -0.32669
B          1.59032       -2.44887       -0.45592
B         -3.99668       -2.14430        0.22763
B         -0.10754       -4.51970        0.44705
B          2.78612       -3.28616        0.34868
B          3.07230       -1.74931       -0.27598
B          4.50441       -0.97805        0.15851
B          0.44728        1.82542       -1.09334
B          1.91487        2.51008       -0.50096
B          3.27242        1.65242       -0.27191
B          4.63652        0.69693        0.18168
B          4.50669        2.34511        0.75253
B          3.22298        3.21226        0.29685
B          1.87930        4.09239        0.28436
B          0.48155        3.42279       -0.50207
B          0.48177        4.73339        0.39403
B         -2.35378        3.47029       -0.09567
B         -0.96362        4.20768        0.06544
B         -2.50447        1.82590       -0.60552
B         -3.73265        2.65789        0.21735
B         -3.94987        1.08319       -0.31172
B         -1.08080        2.67939       -0.76667
B         -1.38586       -2.25473       -0.86556
B          3.31012       -0.03765       -0.60316
B         -1.11409        0.97875       -1.03772
B          4.19590       -2.54907        0.76472
B         -5.17854       -1.37543        0.85988
B         -5.14887        0.31504        0.58008
B         -4.97407        1.97470        0.86584
B         -6.06795        1.10322        1.62155
B         -6.14823       -0.38450        1.62510
B          1.86924        0.86479       -0.98513
B         -1.35166       -3.95827       -0.87916
B          0.18032       -1.61463       -0.96369
B          5.31057       -1.70912        1.34708
B          5.62528       -0.18798        1.32014
B          5.53232        1.37039        1.32060
B          0.28876        0.07694       -0.98559
