45
isomer_0903.log	Energy: -113510.9145015
B          2.53387        1.62285       -0.47879
B          2.52404        3.32751       -0.19016
B          1.18369        4.10810        0.02886
B         -0.32543        3.34657       -0.40613
B          1.00939        0.80119       -0.72198
B         -1.76524        0.83822       -0.81906
B         -1.63779        4.09115        0.40059
B          3.96142        0.82914       -0.55259
B         -1.73720        2.45702       -0.21682
B          3.89839        2.47945       -0.05425
B         -0.22711        4.69315        0.41921
B         -3.05665        3.26641        0.41282
B         -3.20321        1.75631       -0.19149
B         -4.56933        0.83445        0.23302
B         -0.41697       -1.59833       -0.96369
B         -1.87412       -2.42712       -0.55522
B         -3.33076       -1.65759       -0.44727
B         -4.74343       -0.77972       -0.16003
B         -4.60391       -2.40739        0.43646
B         -3.22829       -3.22421        0.05895
B         -1.84764       -4.00848        0.20103
B         -0.40494       -3.28755       -0.50257
B         -0.43954       -4.50655        0.54610
B          2.34065       -3.03939        0.29960
B          0.92677       -3.86211        0.38294
B          2.56178       -1.73948       -0.90638
B          3.84483       -2.63866        0.24963
B          3.98169       -0.91932       -0.62821
B          1.05864       -2.45551       -0.68083
B          1.14217        2.54473       -0.70341
B         -3.32904        0.06341       -0.64418
B          1.03000       -0.79329       -0.96578
B         -4.46765        2.47479        0.72376
B          5.14894        1.66840        0.48361
B          5.22069       -0.04583        0.17601
B          4.84845       -1.63031        0.84263
B          5.90831       -0.65039        1.51272
B          6.13933        0.78720        1.24533
B         -1.80970       -0.75521       -0.80135
B          2.95544       -1.34488        0.82961
B         -0.36537        1.67567       -0.86284
B         -5.67893        1.59359        1.07792
B         -5.89691        0.05889        0.99890
B         -5.66866       -1.47175        0.96626
B          2.40933       -0.07510       -0.07293
