45
isomer_0904.log	Energy: -113521.6262651
B         -2.60320       -1.89969       -1.00360
B         -2.23371       -3.11774        0.48006
B         -0.86412       -3.99690        0.34597
B          0.42874       -3.31920       -0.48881
B         -1.00685       -0.80630       -0.70855
B          1.76201       -0.74026       -0.78590
B          1.91615       -4.05499        0.13501
B         -3.86775       -0.98738       -0.40700
B          1.87064       -2.42067       -0.53240
B         -3.58843       -2.36715        0.62615
B          0.51964       -4.61819        0.44079
B          3.25524       -3.22116        0.01933
B          3.31842       -1.62122       -0.44554
B          4.71947       -0.73330       -0.17986
B          0.34986        1.75262       -0.97363
B          1.69512        2.51783       -0.21901
B          3.10652        1.74776       -0.11366
B          4.55117        0.90584        0.19091
B          4.38557        2.50573        0.79564
B          2.98529        3.30618        0.46993
B          1.58697        4.10930        0.45468
B          0.26806        3.40401       -0.43698
B          0.14887        4.69172        0.48382
B         -2.57647        3.35920       -0.19386
B         -1.22658        4.14428        0.05408
B         -2.52821        1.72760       -0.57498
B         -3.94007        2.50081       -0.03529
B         -3.96223        0.83181       -0.35092
B         -1.16196        2.58038       -0.80757
B         -1.09524       -2.50636       -0.67320
B          3.28747        0.09897       -0.66109
B         -1.02453        0.88250       -0.83448
B          4.59295       -2.37771        0.40923
B         -5.04093       -1.70014        0.77461
B         -5.25079       -0.11049        0.16224
B         -5.14003        1.61067        0.53884
B         -6.14730        0.63048        1.27665
B         -6.20834       -0.85761        1.27061
B          1.74878        0.88647       -0.82583
B         -2.12395       -1.39011        0.58979
B          0.44676       -1.64293       -0.91745
B          5.65354       -1.42195        0.93482
B          5.84267        0.09886        0.99402
B          5.59315        1.63923        1.13251
B         -2.44238       -0.02076       -0.41007
