45
isomer_0905.log	Energy: -113478.6758662
B         -2.57005       -1.70062       -0.61179
B         -2.47948       -3.12606        0.42499
B         -1.11645       -3.88524        0.48230
B          0.14261       -3.31255       -0.57622
B         -1.27552       -0.73589       -0.74952
B          1.67168       -0.74916       -0.70829
B          1.65758       -4.12798        0.12115
B         -3.94641       -0.82234       -0.25313
B          1.66295       -2.47000       -0.36339
B         -3.83885       -2.30956        0.38963
B          0.30681       -4.54521        0.53601
B          3.03120       -3.30587        0.05553
B          3.11908       -1.69668       -0.39866
B          4.58301       -0.83892       -0.16613
B          0.34541        1.86437       -1.04589
B          1.75479        2.55742       -0.43439
B          3.15009        1.75705       -0.22013
B          4.49481        0.79716        0.22002
B          4.42078        2.45889        0.73328
B          3.06556        3.29660        0.36158
B          1.69306        4.14732        0.41632
B          0.31284        3.38747       -0.35859
B          0.28573        4.69343        0.57028
B         -2.49614        3.31258        0.04938
B         -1.12337        4.09526        0.26914
B         -2.52901        1.65185       -0.57220
B         -3.83870        2.50126        0.10229
B         -3.94328        0.91990       -0.29044
B         -1.17114        2.60385       -0.65079
B         -1.31609       -2.73237       -1.06174
B          3.25760        0.05926       -0.66975
B         -1.16116        0.90160       -1.02483
B          4.39561       -2.46158        0.43766
B         -5.22300       -1.52387        0.65511
B         -5.29194        0.07268        0.09758
B         -5.22670        1.72260        0.50377
B         -6.32254        0.87095        1.13708
B         -6.32259       -0.60430        1.21734
B          1.77836        0.90081       -0.93931
B         -1.11606       -2.05745        0.55349
B          0.18350       -1.58775       -0.38635
B          5.45343       -1.54035        0.99750
B          5.73193       -0.02026        1.05538
B          5.56163        1.52526        1.14101
B          0.24844        0.05640       -1.04626
