45
isomer_0906.log	Energy: -110318.9986568
B         -2.58865       -1.69815       -0.48360
B         -2.58018       -3.33359       -0.09263
B         -1.17362       -4.16077        0.16067
B          0.28438       -3.33086       -0.38987
B         -1.12893       -0.80698       -0.79011
B          1.74610       -0.83452       -0.86511
B          1.67289       -4.11052        0.30906
B         -4.04831       -0.82486       -0.42099
B          1.66629       -2.43516       -0.29414
B         -3.98887       -2.51373        0.04721
B          0.24813       -4.77445        0.44785
B          3.10400       -3.26218        0.32292
B          3.13110       -1.64451       -0.25418
B          4.58833       -0.82715        0.24227
B          0.30988        1.71994       -0.95362
B          1.68961        2.42040       -0.32715
B          3.14676        1.61633       -0.27635
B          4.59611        0.79183        0.23127
B          4.43513        2.35190        0.46529
B          3.13524        3.24188        0.27870
B          1.71235        4.10366        0.25322
B          0.31637        3.32794       -0.43514
B          0.29404        4.78307        0.38288
B         -2.54802        3.36223       -0.13815
B         -1.13356        4.17923        0.10397
B         -2.57222        1.72178       -0.50685
B         -3.96451        2.55792        0.01273
B         -4.04020        0.86349       -0.43247
B         -1.13757        2.53809       -0.66992
B         -1.16192       -2.53034       -0.63546
B          3.22320       -0.11719       -0.66090
B         -1.12115        0.81255       -0.80112
B          4.41239       -2.38227        0.49747
B         -5.31106       -1.69925        0.54096
B         -5.29951       -0.06975        0.29597
B         -5.29443        1.76296        0.51743
B         -6.46648        0.81786        1.12189
B         -6.47393       -0.73481        1.13244
B          1.75401        0.81145       -0.87630
B         -1.00773        0.54386        2.08408
B          0.29331       -1.73007       -0.93016
B          5.92361       -1.67700        0.71229
B          6.12666        0.03569        0.76635
B          5.93718        1.76659        0.75947
B         -0.70627       -0.63256       -0.45216
