45
isomer_0908.log	Energy: -113472.2511350
B         -2.19841       -0.97517       -0.64654
B         -1.68060       -2.44633        0.37896
B         -1.08087       -3.82345       -0.39949
B          0.44279       -3.39921       -1.12610
B         -0.91441       -0.83574       -1.83461
B          1.94475       -0.77697       -1.12574
B          1.43119       -3.71530        0.62138
B         -3.74666       -0.51477       -0.24976
B          1.70893       -2.45125       -0.60094
B         -3.14417       -1.85058        0.64200
B          0.13059       -4.44011        0.27225
B          2.80938       -2.90434        0.67818
B          3.11221       -1.53511       -0.16899
B          4.49153       -0.57390        0.32480
B          0.25397        1.36624       -0.59730
B          1.56024        2.40053       -0.48361
B          3.14566        1.86596       -0.46296
B          4.59381        1.07245       -0.04060
B          4.20990        2.77433        0.45740
B          2.85207        3.44518       -0.06004
B          1.38091        4.14681       -0.05247
B          0.07446        3.05323       -0.26376
B         -0.06560        4.58597        0.10494
B         -2.72083        2.84165        0.01270
B         -1.41395        3.75087        0.04349
B         -2.80833        1.06744       -0.39518
B         -4.12030        2.26407        0.21989
B         -4.42718        0.92881       -0.67693
B         -1.33665        2.06801       -0.33585
B         -1.10979       -2.40940       -1.31899
B          3.34217        0.11973       -0.76176
B         -1.12555        0.39763       -0.66021
B          4.09359       -2.06665        1.11431
B         -4.48958       -1.41223        1.13347
B         -5.30396       -0.09759        0.29575
B         -5.47648        1.58409        0.63096
B         -6.37315        0.58437        1.36371
B         -5.79142       -0.72547        1.70058
B          1.75295        0.78604       -0.81343
B          0.10603       -2.60942        0.50879
B          0.50594       -1.60758       -1.50594
B          5.21326       -1.13067        1.60882
B          5.45082        0.39276        1.37631
B          5.23154        1.90845        1.16920
B         -0.51079       -1.10338       -0.07669
