45
isomer_0909.log	Energy: -113494.4342755
B         -2.67760       -1.49283       -1.07956
B         -2.76351       -2.93329       -0.13992
B         -1.47936       -3.46668        0.55565
B         -0.00519       -3.13521       -0.19308
B         -1.16743       -0.72596       -1.35258
B          1.67769       -0.86426       -0.71981
B          1.30683       -3.91901        0.71418
B         -3.84356       -0.68261       -0.15877
B          1.56631       -2.47657       -0.25215
B         -4.18766       -2.25747       -0.35040
B         -0.12704       -4.16141        1.04859
B          2.79297       -3.36344        0.44771
B          3.04600       -1.84614       -0.23069
B          4.58511       -1.12674       -0.20927
B          0.49344        1.71633       -0.98726
B          1.94424        2.37054       -0.42797
B          3.32533        1.51991       -0.34354
B          4.64787        0.51081       -0.00602
B          4.71902        2.19643        0.40989
B          3.37060        3.07333        0.14630
B          2.02796        4.00831        0.24984
B          0.60155        3.37171       -0.44619
B          0.68212        4.68968        0.44437
B         -2.11624        3.36300        0.37248
B         -0.78015        4.14785        0.27643
B         -2.22004        1.72126       -0.15910
B         -3.53180        2.60697        0.58886
B         -3.58478        0.96217        0.27273
B         -0.94037        2.62710       -0.61569
B         -1.32178       -2.52841       -1.16260
B          3.28659       -0.18477       -0.74610
B         -0.95243        0.89315       -0.96038
B          4.26821       -2.66309        0.62306
B         -5.42607       -1.38187        0.06614
B         -5.15167        0.33355        0.18765
B         -4.92544        1.90312        0.88999
B         -6.20988        1.03284        1.16790
B         -6.44603       -0.41246        0.77846
B          1.77408        0.71870       -0.86656
B         -2.15647       -0.07902       -0.01115
B          0.16933       -1.58198       -0.81449
B          5.43518       -1.79092        1.00120
B          5.86796       -0.30614        0.86430
B          5.83441        1.23016        0.80054
B         -1.40831       -1.61664        0.32703
