45
isomer_0091.log	Energy: -113547.2147075
B          2.37881        1.84640       -0.70939
B          2.18156        3.44785        0.07702
B          0.80519        4.18513        0.20123
B         -0.60804        3.43315       -0.50171
B          1.08052        1.17884       -1.47908
B         -1.78899        0.78336       -0.94271
B         -1.99456        3.99379        0.39930
B          3.65954        1.03217       -0.10423
B         -1.93980        2.45044       -0.56952
B          3.51235        2.62761        0.32490
B         -0.64748        4.65095        0.54849
B         -3.27676        3.02488        0.37545
B         -3.22325        1.47964       -0.19825
B         -4.49062        0.35891        0.17998
B         -0.03199       -1.58410       -1.35793
B         -1.23020       -2.56700       -0.64257
B         -2.69382       -1.94689       -0.29716
B         -4.01782       -1.20806        0.46242
B         -3.69947       -2.83047        0.87189
B         -2.24169       -3.40954        0.34299
B         -0.73930       -3.97029        0.32910
B          0.49535       -3.03858       -0.53800
B          0.67334       -4.10979        0.75094
B          2.26540       -3.06910       -0.86900
B          1.94389       -3.22725        0.76267
B          2.74974       -1.33851       -1.24214
B          3.04711       -2.10167        0.47509
B          3.77926       -0.68007       -0.25118
B          1.43209       -2.19430       -1.92698
B          0.97195        2.76799       -0.77573
B         -3.14125       -0.26632       -0.59539
B          1.32877       -0.42686       -1.50768
B         -4.44986        2.02386        0.82545
B          4.58507        1.82445        1.14904
B          4.83722        0.16382        0.70594
B          4.43560       -1.41043        1.14134
B          5.28839       -0.61960        2.11753
B          5.26005        0.86074        2.14180
B         -1.58163       -0.85133       -1.18318
B          1.41540       -1.60004       -0.10988
B         -0.50438        1.94602       -1.23793
B         -5.32824        0.92373        1.42688
B         -5.31856       -0.60950        1.44502
B         -4.88955       -2.13009        1.45009
B         -0.28938        0.18605       -1.46494
