45
isomer_0910.log	Energy: -113377.6502905
B          2.21385        1.92653       -0.41189
B          1.91656        3.39433        0.38665
B          0.43058        4.04871        0.45009
B         -0.80576        3.21176       -0.36226
B          0.96398        0.83255       -0.90621
B         -1.94163        0.62418       -0.98101
B         -2.34913        3.84980        0.16436
B          3.70160        1.30106       -0.29719
B         -2.17903        2.26021       -0.64806
B          3.35179        2.80436        0.40552
B         -1.03136        4.51969        0.54184
B         -3.61350        2.88807       -0.01285
B         -3.53756        1.33066       -0.57446
B         -4.80291        0.23330       -0.27671
B         -0.09599       -1.51386       -1.23523
B         -1.18067       -2.28983       -0.12043
B         -2.75076       -1.87098       -0.05409
B         -4.31247       -1.28824        0.26362
B         -3.81723       -2.76676        0.98743
B         -2.24242       -3.18765        0.79486
B         -0.68934       -3.59436        0.93809
B          0.50468       -2.51682        0.12447
B          0.73731       -4.00836        0.88757
B          2.97451       -2.94169       -0.92366
B          1.92893       -3.66324        0.02634
B          2.73388       -1.05059       -1.16600
B          4.01303       -1.93977       -0.29256
B          4.11392       -0.22992       -0.63488
B          1.45937       -2.20185       -1.42445
B          0.66644        2.43661       -0.29670
B         -3.30837       -0.40553       -0.81653
B          1.24381       -0.49508       -1.76786
B         -4.85459        1.88421        0.32943
B          4.68172        2.12165        1.05079
B          4.57799        0.46080        0.81562
B          5.16840       -1.09405        0.41694
B          6.00188       -0.15570        1.33637
B          5.70518        1.28005        1.72832
B         -1.67521       -0.94293       -1.09519
B          2.19243       -1.95085        0.32530
B         -0.62683        1.57196       -0.84764
B         -5.72691        0.79282        0.92498
B         -5.71686       -0.72724        1.05560
B         -5.19162       -2.17305        1.26683
B          1.16835       -0.76499       -0.07516
