45
isomer_0911.log	Energy: -112567.8977281
B          2.63939        1.74966       -0.48698
B          2.57457        3.39807       -0.11575
B          1.16959        4.25174        0.13194
B         -0.29525        3.45121       -0.37587
B          1.16561        0.88825       -0.85088
B         -1.80679        0.87553       -0.83592
B         -1.66581        4.21107        0.31046
B          4.09311        0.85348       -0.38287
B         -1.73148        2.55367       -0.26052
B          3.97187        2.51644        0.02185
B         -0.23381        4.79596        0.40556
B         -3.08247        3.36685        0.34559
B         -3.15534        1.73946       -0.20860
B         -4.59383        0.88460        0.27487
B         -0.46502       -1.73577       -0.89895
B         -1.80801       -2.52021       -0.28233
B         -3.20235       -1.66881       -0.24180
B         -4.60073       -0.78684        0.24624
B         -4.52538       -2.38798        0.52472
B         -3.17133       -3.31182        0.31243
B         -1.82470       -4.19200        0.27553
B         -0.41781       -3.50051       -0.39662
B         -0.44919       -4.84521        0.39585
B          2.57846       -3.48376        0.01481
B          0.99886       -4.37292        0.15068
B          2.92807       -1.65577       -0.38558
B          4.15519       -2.49944        0.15200
B          4.16289       -0.85821       -0.34878
B          1.01614       -2.82021       -0.62383
B          1.15997        2.66303       -0.61772
B         -3.26975        0.11221       -0.61611
B          1.04695       -0.60188       -0.75096
B         -4.48856        2.50268        0.56682
B          5.27749        1.74371        0.54929
B          5.32586        0.08497        0.34726
B          5.37540       -1.66622        0.60943
B          6.42571       -0.68767        1.16839
B          6.43579        0.78663        1.16133
B         -1.83440       -0.84825       -0.83889
B          1.40433       -1.92480       -0.14656
B         -0.36213        1.83991       -0.89942
B         -5.81389        1.64323        0.72384
B         -5.97907        0.02568        0.75366
B         -5.82155       -1.54083        0.74914
B          0.69337        0.97107        0.37323
