45
isomer_0912.log	Energy: -113420.5553255
B          2.67401       -1.59598        0.71868
B          2.70507       -3.19988        0.07062
B          1.35475       -4.10407       -0.03923
B         -0.12154       -3.42434        0.57094
B          1.21656       -0.78526        1.00719
B         -1.47927       -0.81839        0.13097
B         -1.44471       -4.18207       -0.40664
B          3.97671       -0.69751        0.25882
B         -1.52815       -2.59355        0.16452
B          3.96450       -2.28708       -0.10445
B          0.01535       -4.69618       -0.42032
B         -2.81812       -3.37183       -0.51196
B         -2.92855       -1.73134       -0.07868
B         -4.44591       -1.01948       -0.07232
B         -0.33007        1.68472        0.76652
B         -1.85266        2.44067        0.58122
B         -3.19939        1.54355        0.53119
B         -4.54951        0.67455        0.04673
B         -4.57458        2.37535       -0.33169
B         -3.22018        3.18054        0.02665
B         -1.89287        4.07360       -0.13040
B         -0.41383        3.29155        0.24535
B         -0.50331        4.72627       -0.40536
B          2.37879        3.35215       -0.30538
B          0.93341        4.13934       -0.34625
B          2.50889        1.75169        0.27229
B          3.79865        2.58949       -0.39683
B          3.88355        0.97829       -0.01890
B          1.10765        2.55504        0.37046
B          1.31086       -2.51993        0.65561
B         -3.14941       -0.12285        0.59876
B          1.19380        0.80039        0.70018
B         -4.20146       -2.53943       -0.89671
B          5.35744       -1.45152       -0.45000
B          5.31830        0.20598       -0.10713
B          5.18459        1.80428       -0.76222
B          6.30946        0.88931       -1.24444
B          6.44521       -0.59086       -1.04533
B         -1.68245        0.68794        1.09747
B         -0.27552       -0.11085        1.61142
B         -0.22189       -1.76335        0.91733
B         -5.33918       -1.62314       -1.25127
B         -5.67157       -0.09961       -1.02533
B         -5.61931        1.44040       -0.88269
B         -0.17413        0.14337       -0.10940
