45
isomer_0914.log	Energy: -110291.4113156
B          2.60258        1.70134       -0.40253
B          2.59110        3.34007       -0.02564
B          1.18272        4.16871        0.21229
B         -0.27166        3.33340       -0.33967
B          1.14508        0.80688       -0.70997
B         -1.72947        0.83237       -0.80209
B         -1.66460        4.11834        0.34438
B          4.06223        0.82934       -0.32386
B         -1.65372        2.43788       -0.24440
B          3.99930        2.52213        0.12950
B         -0.24097        4.78413        0.48584
B         -3.09539        3.26946        0.35709
B         -3.11839        1.64689       -0.20627
B         -4.57817        0.83310        0.28859
B         -0.29164       -1.72205       -0.86027
B         -1.67473       -2.41779       -0.23595
B         -3.13250       -1.61402       -0.20060
B         -4.58517       -0.78592        0.29141
B         -4.42489       -2.34384        0.53973
B         -3.12354       -3.23476        0.36842
B         -1.70014       -4.09603        0.35869
B         -0.30047       -3.32556       -0.32808
B         -0.28233       -4.77362        0.50249
B          2.56213       -3.35591       -0.01398
B          1.14663       -4.17150        0.22682
B          2.58778       -1.71867       -0.39657
B          3.97736       -2.54965        0.13833
B          4.05492       -0.85906       -0.32092
B          1.15448       -2.53704       -0.56106
B          1.17641        2.53151       -0.56989
B         -3.20744        0.11610       -0.60043
B          1.13807       -0.81270       -0.70715
B         -4.40441        2.39044        0.53148
B          5.31892        1.71255        0.63797
B          5.30952        0.08100        0.40689
B          5.30394       -1.74975        0.64401
B          6.47200       -0.79894        1.24723
B          6.47872        0.75377        1.24452
B         -1.73659       -0.81364       -0.79922
B          0.55657        1.30959       -0.69922
B         -0.27671        1.72803       -0.86628
B         -5.91655        1.68630        0.74345
B         -6.11917       -0.02596        0.81099
B         -5.92889       -1.75677        0.82005
B          0.63711       -1.47015       -1.11612
