45
isomer_0915.log	Energy: -110141.9937256
B         -2.61345        1.80433        0.42784
B         -2.59316        3.44552        0.06223
B         -1.18058        4.26684       -0.17620
B          0.27084        3.41850        0.36356
B         -1.16035        0.89852        0.72266
B          1.71468        0.90513        0.80225
B          1.66575        4.19931       -0.32121
B         -4.07896        0.94217        0.34961
B          1.64673        2.51492        0.25600
B         -4.00722        2.63763       -0.09232
B          0.24579        4.87509       -0.45178
B          3.09103        3.34147       -0.34610
B          3.10614        1.71492        0.20594
B          4.55852        0.89534       -0.30097
B          0.26086       -1.64046        0.84914
B          1.63673       -2.34062        0.21393
B          3.09943       -1.54589        0.17769
B          4.55519       -0.72364       -0.31500
B          4.38389       -2.27875       -0.57337
B          3.07765       -3.16255       -0.40246
B          1.64884       -4.01482       -0.39239
B          0.25713       -3.24026        0.30586
B          0.22612       -4.68238       -0.53460
B         -2.60695       -3.25026        0.00421
B         -1.19775       -4.07313       -0.24847
B         -2.62049       -1.61558        0.39821
B         -4.01766       -2.43400       -0.13627
B         -4.08244       -0.74617        0.33498
B         -1.19173       -2.44416        0.55071
B         -1.18129        2.62425        0.59463
B          3.18715        0.18090        0.58913
B         -1.16369       -0.72101        0.70862
B          4.39364        2.45540       -0.53234
B         -5.33418        1.83999       -0.60054
B         -5.33418        0.20685       -0.38077
B         -5.34131       -1.62221       -0.63055
B         -6.50591       -0.65985       -1.22202
B         -6.50272        0.89282       -1.20856
B          1.71129       -0.74083        0.78799
B         -0.98285       -2.83469        0.16995
B          0.26796        1.80953        0.87904
B          5.90032        1.74316       -0.75584
B          6.09172        0.03015       -0.83610
B          5.89037       -1.69930       -0.85627
B          0.80914       -1.17216        1.55995
