45
isomer_0917.log	Energy: -113458.7598351
B         -2.54913        1.47067        0.64029
B         -2.72095        3.15115        0.10365
B         -1.45302        4.05555       -0.17897
B          0.09663        3.50994        0.53636
B         -1.02131        0.96088        1.02774
B          1.37671        0.80993        0.70153
B          1.33284        4.13298       -0.54894
B         -3.84082        0.58425        0.23799
B          1.46398        2.57157        0.24897
B         -3.96101        2.19998       -0.07269
B         -0.09398        4.63903       -0.60284
B          2.72596        3.31680       -0.56922
B          2.83320        1.77817       -0.02541
B          4.25249        0.90629       -0.35751
B          0.44887       -1.91894        1.41702
B          1.92777       -2.51932        0.93661
B          3.23784       -1.55422        0.59519
B          4.53883       -0.59580        0.25613
B          4.62209       -2.29735       -0.13115
B          3.36065       -3.17686        0.20131
B          2.07145       -3.73290       -0.46093
B          0.55830       -2.96626        0.03796
B          0.77401       -4.05451       -1.12707
B         -2.07868       -3.11641       -0.45768
B         -0.68781       -3.63132       -0.87004
B         -2.44564       -1.94214        0.74369
B         -3.58582       -2.64993       -0.33346
B         -3.72145       -1.09179        0.20427
B         -0.80857       -1.91388       -0.14861
B         -1.30406        2.63439        0.76327
B          3.06427        0.18509        0.61159
B         -1.99280       -0.28163        0.76325
B          4.08224        2.51140       -0.99325
B         -5.23423        1.34529       -0.55551
B         -5.07223       -0.34389       -0.33100
B         -4.95663       -1.98670       -0.74965
B         -6.12552       -1.11400       -1.29871
B         -6.27219        0.37460       -1.17559
B          1.60316       -0.78343        0.84115
B         -1.11442       -1.52940        1.60028
B          0.22746        1.96531        1.19652
B          5.28542        1.66379       -1.32194
B          5.66425        0.17831       -1.02218
B          5.60126       -1.31179       -0.76112
B         -0.10939       -0.43291        0.42867
