45
isomer_0918.log	Energy: -112617.0933466
B         -2.60473       -1.65808       -0.48382
B         -2.59713       -3.30876       -0.10323
B         -1.20591       -4.14827        0.13141
B          0.25854       -3.33290       -0.41259
B         -1.14569       -0.83024       -0.76215
B          1.74505       -0.81629       -0.85466
B          1.63956       -4.11643        0.27716
B         -4.01623       -0.74307       -0.39446
B          1.66257       -2.44000       -0.30127
B         -3.97661       -2.43381        0.04607
B          0.21709       -4.74857        0.40374
B          3.06757       -3.27258        0.30819
B          3.11659       -1.64914       -0.24417
B          4.56953       -0.82715        0.26261
B          0.32336        1.82981       -0.89763
B          1.71617        2.48285       -0.26847
B          3.15510        1.65298       -0.22681
B          4.57746        0.79924        0.26625
B          4.45492        2.37044        0.53590
B          3.14488        3.27004        0.34642
B          1.74545        4.15269        0.33416
B          0.34335        3.42087       -0.35884
B          0.34504        4.82740        0.46806
B         -2.50144        3.48096       -0.05540
B         -1.09270        4.27807        0.19005
B         -2.55056        1.84541       -0.44575
B         -3.91159        2.64583        0.09075
B         -3.99504        0.98393       -0.37658
B         -1.12078        2.67038       -0.59890
B         -1.19069       -2.53510       -0.64975
B          3.22496       -0.08547       -0.63109
B         -1.11983        0.98049       -0.75098
B          4.41117       -2.40467        0.51077
B         -5.25967       -1.60601        0.56677
B         -5.23334        0.04197        0.34338
B         -5.20871        1.84356        0.58584
B         -6.35578        0.90071        1.17663
B         -6.39065       -0.62817        1.17545
B          1.76379        0.86807       -0.84091
B         -1.47878       -1.95362        1.10395
B          0.30767       -1.73313       -0.93073
B          5.85298       -1.64854        0.72016
B          6.05168        0.01550        0.78686
B          5.87604        1.68395        0.79741
B         -0.61466       -0.12518       -0.83980
