45
isomer_0919.log	Energy: -113387.2915857
B          2.55445       -1.61911        0.31638
B          2.66125       -3.29680        0.14618
B          1.32735       -4.10884        0.02615
B         -0.11807       -3.31508        0.27364
B          1.56127       -0.43085        0.44902
B         -1.67296       -0.86988        0.71615
B         -1.48547       -4.15785       -0.38777
B          3.88535       -0.76707        0.06338
B         -1.62700       -2.52509        0.25108
B          3.95832       -2.44188       -0.08728
B         -0.04916       -4.76111       -0.33324
B         -2.88609       -3.37092       -0.44402
B         -3.07645       -1.75929        0.09427
B         -4.53679       -0.98440       -0.06965
B         -0.37490        1.84984        1.14219
B         -1.80782        2.52474        0.51114
B         -3.15520        1.63090        0.29960
B         -4.47109        0.68190       -0.27087
B         -4.44716        2.35685       -0.64565
B         -3.14053        3.21748       -0.18179
B         -1.80687        4.11790       -0.18170
B         -0.39944        3.45255        0.62894
B         -0.41060        4.72535       -0.37800
B          2.38655        3.40310       -0.18878
B          1.01604        4.20855       -0.19434
B          2.43404        1.73163        0.34897
B          3.71170        2.53371       -0.42540
B          3.82777        0.98072        0.01423
B          1.10224        2.67336        0.59083
B          1.26973       -2.45974        0.94491
B         -3.21499       -0.08296        0.58912
B          1.08097        1.00860        0.82247
B         -4.21801       -2.58484       -0.85511
B          5.21920       -1.53501       -0.68512
B          5.09578        0.11744       -0.48830
B          5.09539        1.77554       -0.86756
B          6.20789        0.90086       -1.42626
B          6.25533       -0.60090       -1.37556
B         -1.75203        0.79744        0.99709
B          0.93579       -1.04815        1.84155
B         -0.28197       -1.73716        0.83728
B         -5.26584       -1.61004       -1.36412
B         -5.63192       -0.11273       -1.25416
B         -5.55218        1.44627       -1.15637
B         -0.20387        0.04497        1.35649
