45
isomer_0920.log	Energy: -110151.0215833
B         -2.54605        1.82476        0.37053
B         -2.50268        3.47187        0.03477
B         -1.07794        4.28175       -0.16778
B          0.35599        3.40808        0.37826
B         -1.10735        0.89796        0.67068
B          1.76605        0.87160        0.79327
B          1.76937        4.18559       -0.27149
B         -4.01936        0.98026        0.25497
B          1.72360        2.49150        0.27505
B         -3.92280        2.68242       -0.15534
B          0.35886        4.87911       -0.41109
B          3.18561        3.31274       -0.29051
B          3.17496        1.67656        0.23242
B          4.62597        0.85023       -0.26740
B          0.28452       -1.65831        0.77277
B          1.66226       -2.36212        0.14569
B          3.13377       -1.58297        0.14555
B          4.60552       -0.76810       -0.31053
B          4.42152       -2.31641       -0.59929
B          3.10345       -3.18872       -0.46378
B          1.66561       -4.02531       -0.49032
B          0.27188       -3.24806        0.20087
B          0.23814       -4.67458       -0.66570
B         -2.58726       -3.22127       -0.14361
B         -1.18329       -4.05492       -0.38996
B         -2.58925       -1.59380        0.27942
B         -3.98687       -2.38720       -0.29045
B         -4.04068       -0.70742        0.20999
B         -1.17191       -2.44059        0.43833
B         -1.10788        2.62582        0.57335
B          3.23374        0.13517        0.58917
B         -1.12781       -0.72093        0.62754
B          4.48132        2.41587       -0.47317
B         -5.25039        1.90855       -0.69754
B         -5.27119        0.27186       -0.50713
B         -5.29413       -1.55228       -0.78977
B         -6.43929       -0.56683       -1.38119
B         -6.41968        0.98522       -1.33982
B          1.74526       -0.77371        0.74942
B         -1.89357       -1.49589        3.07247
B          0.32810        1.79031        0.86468
B          5.98349        1.69123       -0.68691
B          6.15773       -0.02207       -0.79503
B          5.93821       -1.74858       -0.84924
B         -0.67556       -2.52844        0.75782
