45
isomer_0922.log	Energy: -113499.4741699
B         -2.62491        0.03833       -0.75327
B         -2.79029       -3.19975       -0.00827
B         -1.35623       -4.09458        0.06504
B          0.04598       -3.13674        0.04053
B         -1.20184       -0.58813       -0.26350
B          1.89925       -0.90551       -1.08952
B          1.47222       -4.03531        0.24335
B         -4.18395       -0.67106       -0.54019
B          1.50000       -2.22599        0.02678
B         -4.19200       -2.31764       -0.00549
B          0.04364       -4.71224        0.03975
B          2.84179       -3.26595        0.49373
B          3.08822       -1.85563       -0.29233
B          4.58599       -1.01962        0.05346
B          0.47375        1.76686       -1.09531
B          1.96280        2.42088       -0.58601
B          3.33463        1.58182       -0.41117
B          4.72780        0.65560       -0.22119
B          4.64920        2.25332        0.47580
B          3.32393        3.15088        0.10528
B          1.98715        3.99496        0.28378
B          0.53395        3.36742       -0.47643
B          0.61475        4.53392        0.62511
B         -2.19197        3.10764        0.44996
B         -0.80079        3.92528        0.46861
B         -2.31684        1.55033       -0.24549
B         -3.58181        2.48153        0.58813
B         -3.91242        1.05245       -0.16208
B         -0.95349        2.50276       -0.48050
B         -1.42184       -2.29120       -0.00434
B          3.37603       -0.11818       -0.81146
B         -0.98382        0.84590       -0.98457
B          4.30277       -2.61601        0.68730
B         -5.53149       -1.43094        0.25203
B         -5.40538        0.32069       -0.00142
B         -5.03642        1.83788        0.79736
B         -6.32234        1.04120        1.12293
B         -6.55412       -0.41996        0.87655
B          1.80370        0.75992       -0.89110
B         -2.78256       -1.67237       -0.63360
B          0.44516       -0.22868       -0.85796
B          5.58088       -1.81857        0.99019
B          5.85095       -0.29025        0.93370
B          5.66290        1.24415        0.94100
B          0.03711       -1.51942        0.25479
