45
isomer_0924.log	Energy: -113311.9640526
B         -2.39450       -1.74493       -0.55713
B         -2.28600       -3.41234       -0.15380
B         -0.93141       -4.26076       -0.08407
B          0.52960       -3.57154       -0.67858
B         -1.89374       -0.26513       -0.88297
B          1.64873       -0.81431       -0.79667
B          1.85759       -4.19252        0.21973
B         -3.72643       -1.01141       -0.08857
B          1.90238       -2.57782       -0.56002
B         -3.60963       -2.63485        0.22302
B          0.49561       -4.83844        0.26590
B          3.19023       -3.24689        0.27432
B          3.10978       -1.64956       -0.08227
B          4.39825       -0.65895        0.42757
B          0.19300        1.74663       -0.82278
B          1.57765        2.49088       -0.27446
B          3.03980        1.78490       -0.23497
B          4.47929        0.96814       -0.00720
B          4.21398        2.55448        0.71054
B          2.87370        3.37992        0.27169
B          1.50363        4.21680        0.18107
B          0.14740        3.43404       -0.65969
B          0.12158        4.77908        0.21900
B         -2.56558        3.17173        0.06029
B         -1.31467        4.11497       -0.14425
B         -2.52428        1.48183       -0.42590
B         -3.86898        2.24611        0.31907
B         -3.89245        0.68174       -0.08666
B         -1.36823        2.80674       -1.38810
B         -0.93076       -2.69935       -0.78405
B          3.11239        0.03172       -0.49568
B         -1.26084        1.13975       -1.26621
B          4.46962       -2.36729        0.73800
B         -4.92145       -1.92928        0.86382
B         -4.90135       -0.25638        0.75872
B         -5.14321        1.41003        0.89038
B         -6.14384        0.42011        1.54482
B         -6.04266       -1.08498        1.53864
B          1.58089        0.79052       -0.60037
B         -1.06843        2.28438        0.28755
B          0.53397       -1.98022       -1.28460
B          5.57902       -1.42487        1.19400
B          5.66101        0.11769        1.23468
B          5.23594        1.58612        1.29182
B         -0.66658       -1.01650       -1.15562
