45
isomer_0925.log	Energy: -113675.8833875
B          2.56474        1.72951       -0.53181
B          2.51600        3.30312        0.03713
B          1.16028        4.14935        0.10697
B         -0.26679        3.40336       -0.54059
B          1.17155        0.85126       -1.06885
B         -1.71616        0.84331       -0.78159
B         -1.63903        4.17119        0.25713
B          3.98483        0.84352       -0.22445
B         -1.72215        2.55206       -0.42869
B          3.87083        2.48333        0.27613
B         -0.21613        4.74824        0.35150
B         -3.00638        3.34321        0.27833
B         -3.12748        1.73512       -0.21912
B         -4.54691        0.89698        0.14273
B         -0.37112       -1.82422       -1.11745
B         -1.80442       -2.53209       -0.49043
B         -3.17491       -1.67923       -0.26137
B         -4.53130       -0.79494        0.24130
B         -4.40937       -2.44352        0.74808
B         -3.09495       -3.27950        0.26465
B         -1.75131       -4.14382        0.24483
B         -0.35372       -3.38380       -0.51354
B         -0.34506       -4.74580        0.35089
B          2.42523       -3.33588        0.03915
B          1.04477       -4.15735        0.12222
B          2.50757       -1.76017       -0.48708
B          3.80812       -2.53885        0.29289
B          3.95587       -0.91250       -0.21587
B          1.11735       -2.59001       -0.76401
B          1.18788        2.57725       -0.78944
B         -3.29343        0.01687       -0.60907
B          1.12863       -0.84857       -1.04052
B         -4.32346        2.50157        0.77146
B          5.10535        1.64892        0.84522
B          5.19572       -0.04721        0.52276
B          5.05964       -1.74148        0.86479
B          6.08358       -0.81734        1.61324
B          6.10463        0.70316        1.60626
B         -1.78977       -0.83031       -0.91531
B          2.60975       -0.01711       -0.74638
B         -0.31143        1.83022       -1.08585
B         -5.36924        1.57071        1.33939
B         -5.61955        0.03510        1.30528
B         -5.47550       -1.51716        1.30078
B         -0.34274        0.00349       -1.09171
