45
isomer_0927.log	Energy: -113384.6047922
B          2.47390        1.73551       -0.52700
B          2.46324        3.44125        0.04557
B          1.09854        4.20252        0.22939
B         -0.34685        3.43849       -0.35628
B          1.16189        1.00129       -1.07276
B         -1.71256        0.86553       -0.82448
B         -1.72474        4.17901        0.40899
B          3.82392        0.96508       -0.16722
B         -1.75755        2.57417       -0.45897
B          3.77037        2.58659        0.17603
B         -0.33221        4.76553        0.54480
B         -3.06647        3.28575        0.38052
B         -3.10364        1.71541       -0.15293
B         -4.48222        0.77829        0.22046
B         -0.16707       -1.82796       -1.11155
B         -1.62828       -2.52642       -0.61057
B         -3.05538       -1.69968       -0.33911
B         -4.51213       -0.85570       -0.05758
B         -4.31842       -2.49680        0.53609
B         -2.96655       -3.26772        0.13557
B         -1.59346       -4.05020        0.37502
B         -0.16614       -3.25682       -0.09714
B         -0.25246       -4.58651        0.79338
B          2.53575       -3.23873        0.61595
B          1.19470       -4.01717        0.74086
B          2.53971       -1.71312       -0.66040
B          3.71605       -2.29456        0.49112
B          3.81565       -0.80970       -0.17833
B          1.44130       -3.03637       -0.59680
B          1.14452        2.68175       -0.66382
B         -3.21107        0.01039       -0.62411
B          1.32820       -0.58908       -1.30156
B         -4.37384        2.42185        0.79280
B          5.08669        1.76870        0.66647
B          5.11511        0.11038        0.31264
B          5.09208       -1.49007        0.80044
B          6.18041       -0.59797        1.38294
B          6.14778        0.88385        1.35030
B         -1.58983       -0.80395       -0.84444
B          1.35051       -2.03875       -1.81041
B         -0.35112        1.90858       -1.03293
B         -5.48304        1.47216        1.24361
B         -5.65683       -0.06629        1.14277
B         -5.40376       -1.59574        1.07365
B         -0.22473        0.06726       -0.97103
