45
isomer_0928.log	Energy: -113385.7062821
B         -2.45772        1.75220        0.30605
B         -2.38904        3.39219       -0.21272
B         -1.00843        4.18846       -0.22632
B          0.39373        3.42756        0.58422
B         -1.07320        0.96030        0.71884
B          1.77038        0.78936        1.00401
B          1.78991        4.09170       -0.19696
B         -3.86015        0.99230        0.03173
B          1.80655        2.49710        0.51873
B         -3.75585        2.55253       -0.40509
B          0.41075        4.71866       -0.38948
B          3.14575        3.19257       -0.17754
B          3.17769        1.63110        0.32888
B          4.51824        0.67016       -0.18385
B          0.20239       -1.61030        0.45391
B          1.56505       -2.47272        0.00657
B          3.05777       -1.77752        0.08408
B          4.56619       -1.01258        0.00967
B          4.24615       -2.55647       -0.84610
B          2.86479       -3.34953       -0.50833
B          1.45601       -4.16093       -0.40925
B          0.10682       -3.31122        0.25589
B          0.02946       -4.78182       -0.24721
B         -2.67288       -3.25662        0.20241
B         -1.36206       -4.10424        0.09353
B         -2.55784       -1.53156        0.37341
B         -3.96282       -2.40489        0.01310
B         -3.94892       -0.75338        0.15016
B         -1.26510       -2.44719        0.93224
B         -1.11360        2.65828        0.59359
B          3.23156       -0.10622        0.62110
B         -1.32197       -0.54317        0.26459
B          4.48927        2.34452       -0.57873
B         -5.13298        1.77691       -0.85812
B         -5.17368        0.13402       -0.39570
B         -5.26715       -1.52680       -0.57606
B         -6.30317       -0.61573       -1.30418
B         -6.23590        0.87974       -1.42323
B          1.67044       -0.81612        0.54750
B         -0.88017       -1.09525        1.80916
B          0.35217        1.82955        1.10995
B          5.62413        1.43922       -1.02593
B          5.70343       -0.11110       -1.13249
B          5.32867       -1.59910       -1.27900
B          0.23530        0.02603        1.36304
