45
isomer_0929.log	Energy: -112799.6652850
B          2.65889       -1.58783        0.40689
B          2.56824       -3.23654        0.00994
B          1.20521       -4.08030       -0.23606
B         -0.25977       -3.29833        0.29050
B          1.27500       -0.61688        0.69954
B         -1.73893       -0.70712        0.79177
B         -1.67184       -4.07823       -0.39743
B          4.03262       -0.76028        0.31932
B         -1.74433       -2.40660        0.19169
B          3.97094       -2.37975       -0.14302
B         -0.24112       -4.66256       -0.51087
B         -3.14955       -3.20844       -0.39620
B         -3.15281       -1.58096        0.18140
B         -4.59146       -0.70735       -0.26661
B         -0.22493        1.75107        0.87684
B         -1.61631        2.48519        0.27348
B         -3.08954        1.70241        0.23531
B         -4.54525        0.89814       -0.24857
B         -4.39516        2.48735       -0.50565
B         -3.02084        3.30736       -0.31561
B         -1.58922        4.13377       -0.30780
B         -0.22008        3.36236        0.35171
B         -0.18839        4.72826       -0.44086
B          2.59897        3.35057        0.02277
B          1.21178        4.15627       -0.19424
B          2.63544        1.71309        0.40486
B          3.97591        2.51480       -0.13673
B          4.03527        0.90942        0.31642
B          1.24428        2.54548        0.57049
B          1.25363       -2.46673        0.57175
B         -3.20168        0.00953        0.60556
B          1.22460        0.84248        0.71312
B         -4.50018       -2.32418       -0.56523
B          5.24520       -1.63315       -0.64824
B          5.24417        0.00694       -0.41268
B          5.23653        1.74515       -0.63685
B          6.33484        0.81551       -1.23681
B          6.37804       -0.66259       -1.26090
B         -1.70257        0.89675        0.82059
B          0.97325       -1.23976        2.04163
B         -0.21077       -1.61590        0.91746
B         -5.85157       -1.45659       -0.71074
B         -5.97919        0.17003       -0.73230
B         -5.77513        1.74270       -0.72135
B         -0.64216       -1.56454       -0.58828
