45
isomer_0930.log	Energy: -112075.3977741
B          2.61801       -1.63144        0.41469
B          2.61970       -3.26598        0.01989
B          1.21800       -4.10344       -0.22649
B         -0.24285       -3.28612        0.33522
B          1.15342       -0.75232        0.73252
B         -1.72078       -0.80229        0.82560
B         -1.62969       -4.07488       -0.35678
B          4.07046       -0.74674        0.34493
B         -1.63222       -2.40093        0.25035
B          4.02111       -2.43492       -0.12689
B         -0.20075       -4.72743       -0.50614
B         -3.06738       -3.23762       -0.35959
B         -3.10331       -1.62155        0.22151
B         -4.56994       -0.81435       -0.26379
B         -0.30381        1.76300        0.91111
B         -1.69285        2.45421        0.29503
B         -3.14403        1.63900        0.25152
B         -4.59015        0.80450       -0.24889
B         -4.44272        2.36631       -0.48022
B         -3.14859        3.26588       -0.29973
B         -1.73226        4.13859       -0.28119
B         -0.32600        3.37211        0.39650
B         -0.32010        4.82926       -0.41818
B          2.53609        3.42926        0.08152
B          1.11386        4.23585       -0.14973
B          2.57531        1.78819        0.44616
B          3.95778        2.63630       -0.08022
B          4.04937        0.94147        0.36047
B          1.13546        2.59299        0.62022
B          1.19875       -2.47501        0.57357
B         -3.20464       -0.09594        0.63243
B          1.13320        0.86708        0.74743
B         -4.38361       -2.36746       -0.52379
B          5.33381       -1.60908       -0.62705
B          5.31122        0.01971       -0.37812
B          5.29057        1.85284       -0.59519
B          6.46604        0.91825       -1.20928
B          6.48543       -0.63429       -1.22357
B         -1.74133        0.84354        0.84075
B          1.06174       -1.72593        1.35789
B         -0.26073       -1.68671        0.87936
B         -5.90156       -1.67342       -0.72738
B         -6.11817        0.03778       -0.77610
B         -5.94203        1.77007       -0.76630
B          0.07019       -0.39834       -0.91404
