45
isomer_0931.log	Energy: -112780.2735852
B          2.61136       -1.64211        0.42859
B          2.61217       -3.28100        0.05223
B          1.21016       -4.11943       -0.18904
B         -0.25136       -3.29401        0.35892
B          1.14693       -0.75764        0.73199
B         -1.72760       -0.80297        0.81675
B         -1.63708       -4.08878       -0.32844
B          4.06515       -0.76007        0.35337
B         -1.63932       -2.40810        0.25980
B          4.01508       -2.45339       -0.09957
B         -0.20853       -4.74476       -0.46603
B         -3.07367       -3.24980       -0.34511
B         -3.10933       -1.62725        0.21765
B         -4.57341       -0.82374       -0.28123
B         -0.30761        1.76135        0.87775
B         -1.69386        2.44731        0.24965
B         -3.14595        1.63348        0.21083
B         -4.59160        0.79520       -0.28462
B         -4.44145        2.35412       -0.53305
B         -3.14673        3.25405       -0.35871
B         -1.72934        4.12515       -0.34561
B         -0.32615        3.36458        0.34500
B         -0.31588        4.81247       -0.48601
B          2.53696        3.41461        0.03823
B          1.11649        4.22032       -0.20647
B          2.57295        1.77771        0.42144
B          3.95812        2.61810       -0.11018
B          4.04619        0.92824        0.34984
B          1.13361        2.58622        0.58198
B          1.19053       -2.48206        0.59258
B         -3.20996       -0.09699        0.61106
B          1.12874        0.86184        0.72860
B         -4.38828       -2.37991       -0.52316
B          5.33037       -1.63488       -0.60494
B          5.30911       -0.00336       -0.37443
B          5.29149        1.82723       -0.61218
B          6.46763        0.88432       -1.21208
B          6.48507       -0.66830       -1.20883
B         -1.74609        0.84295        0.81331
B          0.99526       -1.51835       -0.64782
B         -0.26886       -1.68855        0.88496
B         -5.90470       -1.68631       -0.73923
B         -6.11897        0.02450       -0.80787
B         -5.94064        1.75657       -0.81703
B          0.27298       -0.07856        1.65709
