45
isomer_0932.log	Energy: -113412.1274566
B          2.48653       -1.31380        0.37773
B          2.64036       -3.23679        0.00181
B          1.33571       -4.07781       -0.04212
B         -0.14526       -3.23933        0.12723
B          1.11287       -0.55743       -0.24958
B         -1.71833       -0.79510        0.66715
B         -1.50707       -4.13906       -0.29536
B          3.98227       -0.75432        0.15696
B         -1.66036       -2.44827        0.12923
B          3.88829       -2.35089       -0.08112
B         -0.09493       -4.75825       -0.24035
B         -2.96694       -3.31915       -0.36110
B         -3.14280       -1.78947        0.25510
B         -4.60877       -0.94331        0.07729
B         -0.33362        1.77213        1.02210
B         -1.79308        2.47026        0.52734
B         -3.21069        1.67889        0.38666
B         -4.51739        0.72050       -0.18417
B         -4.51211        2.39682       -0.53304
B         -3.12714        3.20593       -0.18807
B         -1.76739        4.09457       -0.24466
B         -0.35616        3.32176        0.42242
B         -0.39283        4.67122       -0.46526
B          2.42860        3.28088       -0.26025
B          1.03869        4.07986       -0.32754
B          2.49022        1.62450        0.24327
B          3.81545        2.47989       -0.34881
B          3.94998        0.94462        0.12018
B          1.15236        2.58731        0.52089
B          1.28963       -2.43226        0.62295
B         -3.27841       -0.05812        0.66043
B          1.15211        0.80445        0.69689
B         -4.37729       -2.52804       -0.66630
B          5.28924       -1.54611       -0.47569
B          5.37031        0.11065       -0.08326
B          5.25816        1.71933       -0.65129
B          6.42621        0.82837       -1.11607
B          6.43808       -0.66007       -1.05581
B         -1.79589        0.78799        1.03437
B         -0.23375       -0.02210        1.23635
B         -0.18991       -1.51804        0.22232
B         -5.46119       -1.57596       -1.13072
B         -5.78644       -0.06590       -1.02167
B         -5.67152        1.49075       -0.95534
B          1.10422       -0.94108        1.46889
