45
isomer_0933.log	Energy: -111882.3110629
B         -2.61538       -1.59190       -0.38518
B         -2.63058       -3.22553        0.01309
B         -1.23577       -4.07473        0.25834
B          0.23102       -3.27144       -0.30813
B         -1.14381       -0.72633       -0.70792
B          1.72964       -0.80171       -0.80686
B          1.61234       -4.07088        0.38266
B         -4.05987       -0.69435       -0.31429
B          1.62827       -2.39830       -0.22803
B         -4.02433       -2.38190        0.16102
B          0.17805       -4.71056        0.53637
B          3.05731       -3.24625        0.38070
B          3.10620       -1.63179       -0.20390
B          4.58086       -0.83647        0.27664
B          0.33504        1.77573       -0.89487
B          1.73137        2.45602       -0.28316
B          3.17544        1.62821       -0.24092
B          4.61524        0.78211        0.25826
B          4.48199        2.34563        0.48657
B          3.19542        3.25614        0.30686
B          1.78676        4.14120        0.28940
B          0.37242        3.38566       -0.38373
B          0.38100        4.84452        0.42786
B         -2.48840        3.46858       -0.06293
B         -1.05867        4.26314        0.16365
B         -2.54277        1.82715       -0.42401
B         -3.91664        2.68846        0.10344
B         -4.02402        0.99358       -0.33346
B         -1.09628        2.61892       -0.60276
B         -1.20391       -2.44822       -0.54522
B          3.22004       -0.10800       -0.61828
B         -1.10942        0.89279       -0.72631
B          4.38146       -2.38734        0.54032
B         -5.32869       -1.54353        0.66215
B         -5.29234        0.08447        0.40971
B         -5.25517        1.91781        0.62284
B         -6.43750        0.99486        1.24135
B         -6.47047       -0.55742        1.25898
B          1.76459        0.84384       -0.82555
B         -2.15755       -1.98581       -1.13680
B          0.26178       -1.67340       -0.85571
B          5.90586       -1.70621        0.73928
B          6.13758        0.00312        0.78392
B          5.97661        1.73687        0.77080
B          0.24530       -0.87676       -0.18621
