45
isomer_0934.log	Energy: -111786.5034863
B         -2.51816       -1.67457       -0.43550
B         -2.54771       -3.30384       -0.04233
B         -1.13897       -4.14443        0.19650
B          0.31909       -3.32443       -0.36195
B         -1.07442       -0.79219       -0.74754
B          1.79376       -0.82890       -0.83597
B          1.70374       -4.11550        0.32539
B         -4.02318       -0.74536       -0.35844
B          1.70884       -2.43706       -0.27075
B         -3.96559       -2.45473        0.11714
B          0.27659       -4.76309        0.47074
B          3.13758       -3.27559        0.33567
B          3.17456       -1.65404       -0.23408
B          4.63741       -0.84425        0.25772
B          0.37449        1.75174       -0.90346
B          1.76297        2.43604       -0.28277
B          3.21185        1.61845       -0.24325
B          4.65386        0.77939        0.25245
B          4.51063        2.34266        0.49758
B          3.21163        3.24297        0.31876
B          1.79939        4.11446        0.30435
B          0.39296        3.35809       -0.37893
B          0.38951        4.80064        0.44324
B         -2.46873        3.41722       -0.06525
B         -1.04569        4.21738        0.17132
B         -2.51336        1.78257       -0.44017
B         -3.89381        2.62337        0.09430
B         -3.99392        0.94289       -0.36294
B         -1.06703        2.58627       -0.60820
B         -1.12042       -2.51569       -0.59534
B          3.27542       -0.11693       -0.63496
B         -1.05877        0.86262       -0.74459
B          4.45905       -2.40510        0.51058
B         -5.28288       -1.61654        0.61562
B         -5.25620        0.02214        0.37257
B         -5.23185        1.84125        0.59922
B         -6.39849        0.91099        1.20715
B         -6.42315       -0.64186        1.21474
B          1.81240        0.82623       -0.83950
B         -3.37054       -0.89582       -0.39279
B          0.33852       -1.72025       -0.89691
B          5.96090       -1.69557        0.71656
B          6.17079        0.00615        0.77435
B          5.99573        1.72601        0.77592
B         -0.67883       -0.24380        0.10373
