45
isomer_0936.log	Energy: -113390.9993929
B         -2.46854        1.87953        0.70509
B         -2.44500        3.52817        0.20033
B         -1.06091        4.31400        0.22836
B          0.33304        3.48554        0.69170
B         -1.16583        1.03331        1.24486
B          1.67957        0.88608        0.87426
B          1.72191        4.18035       -0.14197
B         -3.44314        1.01280       -0.21345
B          1.72591        2.54292        0.48098
B         -3.62454        2.67919       -0.22938
B          0.31985        4.85174       -0.12957
B          3.03590        3.30637       -0.26964
B          3.12418        1.71241        0.25174
B          4.42206        0.81100       -0.31849
B          0.21144       -1.81493        1.71317
B          1.44731       -2.35362        0.55935
B          2.86853       -1.59174        0.32864
B          4.19051       -0.84647       -0.32893
B          4.01721       -2.45969       -0.75042
B          2.70293       -3.23782       -0.13504
B          1.42081       -4.04296       -0.01779
B          0.07902       -3.33242        1.00079
B         -0.06371       -4.57766       -0.08127
B         -2.55836       -3.09826        0.34087
B         -1.48009       -4.26349        0.36336
B         -1.97345       -1.40787       -0.02056
B         -3.59003       -2.13912       -0.44869
B         -3.23420       -0.54713       -0.69841
B         -0.94621       -2.92373       -0.45801
B         -1.08455        2.64589        1.03895
B          3.10812        0.03876        0.57389
B         -0.85041       -0.54210        1.12844
B          4.25485        2.43194       -0.87845
B         -4.96784        1.77538       -0.64054
B         -4.75746        0.08074       -0.57667
B         -4.66260       -1.43118       -1.31240
B         -5.85345       -0.47474       -1.65915
B         -6.07858        0.92027       -1.17117
B          1.10398       -0.65027        0.81976
B         -1.35233       -2.30986        1.31644
B          0.35811        1.77813        1.14608
B          5.21046        1.43150       -1.55549
B          5.35898       -0.10426       -1.49315
B          5.10921       -1.63833       -1.38404
B         -0.14262       -1.53836       -0.09439
