45
isomer_0937.log	Energy: -113675.8865043
B          2.56286       -1.73068        0.53016
B          2.51304       -3.30383       -0.03712
B          1.15605       -4.14905       -0.10929
B         -0.26937       -3.40263        0.53845
B          1.16981       -0.85076        1.06831
B         -1.71822       -0.84328        0.78862
B         -1.64251       -4.16961       -0.25825
B          3.98390       -0.84573        0.22466
B         -1.72480       -2.55116        0.43093
B          3.86945       -2.48552       -0.27555
B         -0.22054       -4.74801       -0.35300
B         -3.00903       -3.34028       -0.27825
B         -3.12926       -1.73308        0.22117
B         -4.54691       -0.89351       -0.14542
B         -0.36890        1.82528        1.11711
B         -1.80151        2.53272        0.48801
B         -3.17306        1.68062        0.25987
B         -4.53218        0.79841       -0.23707
B         -4.40618        2.44459       -0.75004
B         -3.09108        3.28067       -0.26675
B         -1.74739        4.14448       -0.24598
B         -0.35046        3.38503        0.51498
B         -0.34090        4.74589       -0.35185
B          2.42792        3.33456       -0.04023
B          1.04823        4.15738       -0.12235
B          2.50929        1.75964        0.48824
B          3.80997        2.53682       -0.29306
B          3.95644        0.91012        0.21556
B          1.11969        2.59001        0.76549
B          1.18540       -2.57757        0.78851
B         -3.29380       -0.01579        0.60952
B          1.12998        0.84874        1.04155
B         -4.32668       -2.49924       -0.77060
B          5.10436       -1.65239       -0.84501
B          5.19555        0.04388       -0.52267
B          5.06094        1.73810       -0.86460
B          6.08487        0.81322       -1.61239
B          6.10442       -0.70751       -1.60576
B         -1.78604        0.83056        0.91091
B          2.60965        0.01594        0.74584
B         -0.31319       -1.83055        1.08733
B         -5.37391       -1.56944       -1.33765
B         -5.62014       -0.03309       -1.30440
B         -5.47279        1.51883       -1.30174
B         -0.34296       -0.00275        1.09378
