45
isomer_0094.log	Energy: -112711.8716074
B         -2.63743       -1.70916       -0.43694
B         -2.59478       -3.37244       -0.05820
B         -1.17572       -4.20534        0.17863
B          0.29366       -3.37404       -0.36685
B         -1.23267       -0.73675       -0.74224
B          1.76961       -0.83684       -0.84400
B          1.69045       -4.13768        0.31937
B         -4.06006       -0.84188       -0.37706
B          1.71170       -2.46286       -0.27333
B         -3.99356       -2.53053        0.08489
B          0.26498       -4.78426        0.45154
B          3.12322       -3.28013        0.33404
B          3.15093       -1.65912       -0.23599
B          4.60199       -0.81976        0.25295
B          0.29395        1.74757       -0.91127
B          1.68355        2.44624       -0.28930
B          3.13622        1.64300       -0.24798
B          4.58634        0.81671        0.24623
B          4.43215        2.38612        0.49813
B          3.09871        3.26633        0.30874
B          1.67522        4.12514        0.29339
B          0.27654        3.36122       -0.38618
B          0.26043        4.77804        0.42398
B         -2.60006        3.37590       -0.07903
B         -1.17472        4.19833        0.15659
B         -2.62741        1.72527       -0.45125
B         -4.00231        2.53644        0.07132
B         -4.06276        0.86152       -0.37788
B         -1.19785        2.57759       -0.61294
B         -1.20274       -2.58435       -0.59007
B          3.22930       -0.09786       -0.63875
B         -1.20749        0.81046       -0.75757
B          4.45961       -2.39552        0.51575
B         -5.30296       -1.72375        0.57777
B         -5.29735       -0.08129        0.34301
B         -5.29981        1.72531        0.56959
B         -6.44409        0.77132        1.15965
B         -6.45741       -0.76022        1.16871
B          1.75929        0.82581       -0.84797
B         -0.55848       -1.38140       -0.10814
B          0.35151       -1.75146       -0.90243
B          5.90777       -1.62720        0.71145
B          6.08321        0.05272        0.76177
B          5.88556        1.73995        0.76027
B         -0.59624        1.38288        0.34761
