45
isomer_0940.log	Energy: -113667.3929867
B         -2.54128        1.70626        0.50207
B         -2.52339        3.29680       -0.00274
B         -1.15823        4.14342       -0.11858
B          0.27161        3.39376        0.48834
B         -1.14517        0.83876        1.01232
B          1.74043        0.85625        0.79626
B          1.63550        4.15847       -0.32179
B         -3.98270        0.82981        0.26113
B          1.73446        2.55319        0.40248
B         -3.88202        2.46414       -0.22843
B          0.21753        4.74381       -0.39284
B          3.01230        3.33740       -0.31238
B          3.14323        1.73797        0.22236
B          4.55224        0.89084       -0.14702
B          0.35956       -1.80665        1.07718
B          1.80666       -2.52413        0.49750
B          3.19020       -1.67063        0.29481
B          4.56283       -0.79846       -0.15104
B          4.44294       -2.45221       -0.65773
B          3.11627       -3.28526       -0.19432
B          1.76306       -4.14474       -0.21504
B          0.35038       -3.38074        0.50326
B          0.35991       -4.75306       -0.34072
B         -2.41165       -3.32318       -0.14370
B         -1.03737       -4.15653       -0.15842
B         -2.50919       -1.73117        0.29694
B         -3.84157       -2.54883       -0.31776
B         -3.96434       -0.92063        0.22892
B         -1.13003       -2.57138        0.68339
B         -1.17992        2.57997        0.78245
B          3.30257        0.03133        0.63821
B         -1.11614       -0.83774        0.86616
B          4.34690        2.49757       -0.76670
B         -5.15365        1.64982       -0.73230
B         -5.21875       -0.04881       -0.45258
B         -5.11369       -1.74093       -0.81119
B         -6.16787       -0.79980       -1.50239
B         -6.18830        0.71084       -1.46941
B          1.76998       -0.81284        0.86625
B         -2.61285       -0.03907        0.76528
B          0.32808        1.83479        1.06766
B          5.39098        1.56053       -1.32820
B          5.63681        0.02615       -1.25399
B          5.47884       -1.52096       -1.23952
B          0.36485        0.02589        1.00579
