45
isomer_0941.log	Energy: -113317.5890230
B          2.46533        1.73013       -0.55796
B          2.25507        3.44829       -0.11276
B          0.84190        4.14475       -0.07069
B         -0.54320        3.36472       -0.74840
B          1.15338        0.86912       -1.13707
B         -1.79868        0.74462       -0.80476
B         -1.98658        4.05208        0.02074
B          3.92414        1.13375       -0.11478
B         -1.91826        2.42116       -0.61153
B          3.52949        2.66710        0.39427
B         -0.61611        4.66601        0.18259
B         -3.31768        3.14072        0.05699
B         -3.28548        1.52846       -0.28873
B         -4.58641        0.53565        0.18993
B         -0.25783       -1.72300       -1.16390
B         -1.48781       -2.62001       -0.30815
B         -2.92373       -1.87362        0.02839
B         -4.39939       -1.10656        0.37425
B         -4.01166       -2.64558        1.10663
B         -2.61873       -3.35529        0.65440
B         -1.13601       -4.05962        0.53171
B         -0.02330       -3.34037       -0.55963
B          0.35174       -4.44585        0.54074
B          2.81383       -2.92688       -0.58167
B          1.60853       -3.82260       -0.11158
B          3.15827       -1.24725       -1.08458
B          3.98131       -2.08978        0.19175
B          4.21575       -0.49675       -0.17106
B          1.30682       -2.48105       -1.16956
B          1.03480        2.58900       -0.76146
B         -3.23078       -0.23137       -0.50141
B          1.28687       -0.70820       -1.54417
B         -4.54829        2.24590        0.60881
B          4.50092        1.98785        1.39832
B          4.83883        0.36337        1.08276
B          4.85107       -1.34027        1.24552
B          5.50386       -0.37106        2.34105
B          5.35122        1.11051        2.39866
B         -1.65325       -0.96745       -0.80384
B          2.29668       -1.79440       -2.17141
B         -0.46243        1.71580       -1.15275
B         -5.51143        1.26455        1.25609
B         -5.53707       -0.28752        1.41820
B         -5.17754       -1.79515        1.57898
B         -0.23816        0.00610       -1.06893
