45
isomer_0942.log	Energy: -109487.5063708
B         -2.62232       -1.58033       -0.41501
B         -2.63579       -3.21574       -0.02404
B         -1.24035       -4.06241        0.22637
B          0.22791       -3.25284       -0.32718
B         -1.15098       -0.70955       -0.72454
B          1.72322       -0.77707       -0.80546
B          1.60688       -4.05175        0.36889
B         -4.06956       -0.68684       -0.34940
B          1.62234       -2.37645       -0.23432
B         -4.03265       -2.37638        0.11870
B          0.17332       -4.69580        0.51063
B          3.04968       -3.22340        0.37979
B          3.09808       -1.60625       -0.19738
B          4.56756       -0.80924        0.29606
B          0.32249        1.79712       -0.89103
B          1.71311        2.47831       -0.26742
B          3.15904        1.65405       -0.21961
B          4.59783        0.80947        0.28502
B          4.45905        2.37162        0.51936
B          3.17128        3.27960        0.33545
B          1.76045        4.16108        0.31289
B          0.35240        3.40487       -0.37258
B          0.35200        4.86015        0.44546
B         -2.51061        3.47898       -0.06969
B         -1.08443        4.27623        0.16951
B         -2.55838        1.83903       -0.43832
B         -3.93783        2.69445        0.08412
B         -4.03800        1.00124       -0.36091
B         -1.11286        2.63532       -0.60435
B         -1.20762       -2.43229       -0.56980
B          3.21058       -0.08035       -0.60431
B         -1.12071        0.90972       -0.73558
B          4.37054       -2.36177        0.55164
B         -5.34236       -1.54360        0.61517
B         -5.30866        0.08559        0.37014
B         -5.27763        1.91805        0.59157
B         -6.46146        0.98933        1.19845
B         -6.49049       -0.56308        1.20904
B          1.75400        0.86863       -0.81668
B         -1.81252       -2.24355        0.11417
B          0.25799       -1.65232       -0.86751
B          5.89186       -1.67759        0.76333
B          6.11882        0.03211        0.81696
B          5.95341        1.76548        0.81045
B          0.50135       -1.33183       -1.19808
