45
isomer_0943.log	Energy: -112240.4253121
B          2.54189        1.79908       -0.46046
B          2.50114        3.43654       -0.08053
B          1.09392        4.24680        0.16185
B         -0.35045        3.39672       -0.38179
B          1.08720        0.90488       -0.76563
B         -1.78777        0.85819       -0.84079
B         -1.74668        4.15348        0.31157
B          4.01150        0.94098       -0.37538
B         -1.72559        2.47704       -0.28044
B          3.91173        2.62654        0.07384
B         -0.33680        4.82680        0.44267
B         -3.16226        3.28576        0.33283
B         -3.17563        1.66466       -0.23211
B         -4.61996        0.82402        0.26726
B         -0.34085       -1.72164       -0.90818
B         -1.71220       -2.42952       -0.28244
B         -3.16712       -1.62620       -0.23642
B         -4.60957       -0.80430        0.26341
B         -4.45178       -2.37147        0.51010
B         -3.13996       -3.25720        0.32328
B         -1.72217       -4.11713        0.30345
B         -0.33858       -3.33698       -0.38309
B         -0.31638       -4.77638        0.43557
B          2.55441       -3.39899       -0.04655
B          1.10676       -4.18504        0.16700
B          2.62970       -1.56537       -0.49746
B          3.98870       -2.48227        0.11546
B          4.03875       -0.73399       -0.37675
B          1.10337       -2.54400       -0.60911
B          1.10217        2.62307       -0.62038
B         -3.25713        0.11359       -0.62847
B          1.08918       -0.80345       -0.75726
B         -4.47162        2.39540        0.52016
B          5.23839        1.84005        0.59463
B          5.25434        0.20556        0.36826
B          5.27132       -1.62359        0.61155
B          6.39893       -0.64512        1.22027
B          6.39658        0.89445        1.21460
B         -1.78365       -0.81138       -0.83960
B          2.37249       -2.18089       -0.11653
B         -0.34441        1.79099       -0.91174
B         -5.94401        1.64116        0.73133
B         -6.12244       -0.04698        0.78756
B         -5.92770       -1.75270        0.78838
B          0.86222        0.26886        0.08610
