45
isomer_0944.log	Energy: -113675.8862508
B         -2.50861       -1.76014       -0.48754
B         -2.42702       -3.33539        0.03976
B         -1.04673       -4.15749        0.12297
B          0.35170       -3.38480       -0.51434
B         -1.12946       -0.84865       -1.04099
B          1.78719       -0.83021       -0.91227
B          1.74897       -4.14404        0.24571
B         -3.95599       -0.91082       -0.21555
B          1.80279       -2.53253       -0.48917
B         -3.80931       -2.53776        0.29312
B          0.34263       -4.74591        0.35173
B          3.09280       -3.28003        0.26584
B          3.17388       -1.67982       -0.26080
B          4.53226       -0.79707        0.23816
B          0.31226        1.83061       -1.08726
B          1.72378        2.55137       -0.43049
B          3.12876        1.73396       -0.22108
B          4.54676        0.89495        0.14508
B          4.32559        2.50024        0.77074
B          3.00785        3.34109        0.27840
B          1.64099        4.16989        0.25843
B          0.26830        3.40296       -0.53890
B          0.21866        4.74768        0.35362
B         -2.51453        3.30359        0.03635
B         -1.15778        4.14905        0.10872
B         -2.56375        1.73026       -0.53068
B         -3.87033        2.48448        0.27525
B         -3.98454        0.84479       -0.22504
B         -1.18642        2.57745       -0.78884
B         -1.11866       -2.58990       -0.76456
B          3.29375        0.01642       -0.60919
B         -1.17041        0.85070       -1.06831
B          4.40764       -2.44389        0.74894
B         -5.06007       -1.73935        0.86508
B         -5.19534       -0.04517        0.52302
B         -5.10498        1.65108        0.84475
B         -6.10494        0.70595        1.60548
B         -6.08416       -0.81477        1.61295
B          1.71764        0.84360       -0.78742
B         -2.60954       -0.01642       -0.74593
B          0.36963       -1.82519       -1.11717
B          5.47390       -1.51789        1.30129
B          5.61981        0.03419        1.30497
B          5.37201        1.57024        1.33906
B          0.34303        0.00269       -1.09383
