45
isomer_0945.log	Energy: -113409.2981758
B         -2.43496        1.86027        0.57334
B         -2.39968        3.51866        0.06309
B         -1.03066        4.28786       -0.07673
B          0.39651        3.49491        0.49569
B         -1.15481        0.98145        1.11150
B          1.76523        0.90559        0.82876
B          1.77896        4.18325       -0.40049
B         -3.73564        1.03308        0.07779
B          1.81995        2.60115        0.41806
B         -3.72058        2.68915       -0.12880
B          0.37224        4.84194       -0.39672
B          3.11577        3.27449       -0.42851
B          3.11413        1.67906        0.05462
B          4.47924        0.70644       -0.32874
B          0.25350       -1.65003        1.15614
B          1.57309       -2.49851        0.62766
B          3.01411       -1.71246        0.27582
B          4.50754       -0.95309        0.00600
B          4.21242       -2.58748       -0.55622
B          2.85984       -3.33253       -0.07672
B          1.47109       -4.05471       -0.15038
B         -0.03005       -3.23306        0.41686
B          0.11486       -4.55367       -0.54811
B         -2.66378       -3.33543       -0.65948
B         -1.31988       -4.14504       -0.70107
B         -2.49374       -1.73286        0.57397
B         -3.76207       -2.26400       -0.55008
B         -3.71560       -0.74189        0.05468
B         -1.75018       -3.34032        0.66203
B         -1.09467        2.73973        0.83058
B          3.21353       -0.01700        0.56099
B         -1.24289       -0.63183        1.24386
B          4.41142        2.34251       -0.89065
B         -4.99250        1.85761       -0.72647
B         -5.02743        0.19688       -0.42354
B         -5.11318       -1.42864       -0.83031
B         -6.09797       -0.50978       -1.49749
B         -6.06962        0.98285       -1.41028
B          1.63454       -0.76924        0.79370
B          0.26179        0.14581        1.03129
B          0.38148        1.95299        1.13371
B          5.47470        1.36464       -1.36492
B          5.57858       -0.22342       -1.27545
B          5.29477       -1.71787       -1.15870
B         -1.24940       -2.20752        1.58972
