45
isomer_0946.log	Energy: -113450.7756142
B         -2.47071        1.83186        0.46646
B         -2.30878        3.43602       -0.32986
B         -0.91159        4.15488       -0.35674
B          0.46345        3.39131        0.45361
B         -1.18744        1.00878        0.97448
B          1.76524        0.79273        0.94439
B          1.94033        4.04219       -0.21119
B         -3.79817        1.04740       -0.03965
B          1.87100        2.46873        0.60305
B         -3.64716        2.62740       -0.51273
B          0.55614        4.63868       -0.52561
B          3.25983        3.15550       -0.07930
B          3.21861        1.56073        0.42834
B          4.59269        0.56497        0.14755
B          0.07129       -1.25984       -0.13133
B          1.27961       -2.25751       -0.49164
B          2.84135       -1.81870       -0.00120
B          4.28750       -1.00281       -0.34279
B          4.08286       -2.57893       -0.97978
B          2.62178       -3.25558       -0.77137
B          1.25590       -4.04128       -0.56458
B          0.06673       -3.11618        0.35467
B         -0.12093       -4.60229       -0.30083
B         -2.76838       -3.21043        0.39387
B         -1.44953       -4.01472        0.13662
B         -2.67284       -1.53112        0.61521
B         -4.02905       -2.30675        0.08888
B         -3.92568       -0.65335        0.18696
B         -1.31967       -2.41784        1.00284
B         -1.03885        2.58418        0.38433
B          3.14971       -0.21631        0.61549
B         -1.26330       -0.65916        0.80039
B          4.58699        2.25680       -0.33380
B         -5.01718        1.84248       -0.90841
B         -5.21689        0.25726       -0.25764
B         -5.32081       -1.42321       -0.48656
B         -6.34268       -0.53548       -1.17830
B         -6.15672        0.92702       -1.42677
B          1.59842       -0.99670        0.95971
B          0.23242        0.02352        1.16348
B          0.37594        1.80631        1.03099
B          5.63722        1.27957       -0.82389
B          5.69118       -0.26644       -1.00747
B          5.35631       -1.77713       -1.22829
B          0.16386       -1.75656        1.53841
