45
isomer_0948.log	Energy: -113461.8938671
B          2.57553       -1.71965        0.60490
B          2.50545       -3.14014       -0.39681
B          1.13288       -3.85173       -0.58459
B         -0.12546       -3.33937        0.50441
B          1.23439       -0.76802        0.56256
B         -1.67155       -0.77075        0.82527
B         -1.66303       -4.09659       -0.23452
B          3.96466       -0.85352        0.27978
B         -1.67939       -2.48770        0.37548
B          3.88814       -2.33178       -0.34299
B         -0.30502       -4.46918       -0.68922
B         -3.03080       -3.29781       -0.09331
B         -3.12099       -1.69185        0.40192
B         -4.57190       -0.84030        0.16938
B         -0.33104        1.83644        0.93181
B         -1.74886        2.54546        0.44304
B         -3.15005        1.75193        0.25600
B         -4.52769        0.80459       -0.12713
B         -4.41430        2.45942       -0.68588
B         -3.06030        3.28511       -0.36051
B         -1.70291        4.16757       -0.41308
B         -0.31892        3.36948        0.26398
B         -0.30436        4.73215       -0.56886
B          2.50495        3.36482       -0.04436
B          1.12339        4.12734       -0.29925
B          2.52967        1.67103        0.60978
B          3.82574        2.53495       -0.07511
B          3.93824        0.94349        0.32230
B          1.16109        2.57117        0.47379
B          1.34167       -2.73948        1.06269
B         -3.26602        0.04983        0.72481
B          1.16525        0.87195        0.84827
B         -4.39926       -2.44819       -0.45639
B          5.25685       -1.52465       -0.60463
B          5.25583        0.09294       -0.09033
B          5.21502        1.73928       -0.47646
B          6.33101        0.88472       -1.08200
B          6.35037       -0.58776       -1.14993
B         -1.76976        0.88545        0.94941
B         -0.23057        0.05448        1.09226
B         -0.22140       -1.68676        0.74487
B         -5.46500       -1.53820       -0.99057
B         -5.72341       -0.00986       -1.03992
B         -5.55610        1.52757       -1.10588
B          1.05794       -2.07787       -0.53498
