45
isomer_0949.log	Energy: -112408.3973135
B         -2.59281        1.70233        0.35965
B         -2.56298        3.34363       -0.01104
B         -1.14552        4.16702       -0.22866
B          0.30635        3.34119        0.33104
B         -1.07517        0.78257        0.69202
B          1.77467        0.83605        0.80058
B          1.69989        4.12573       -0.34492
B         -4.02373        0.82315        0.27029
B          1.69709        2.45016        0.24329
B         -3.96881        2.51869       -0.18272
B          0.27798        4.77753       -0.49301
B          3.12870        3.28607       -0.35196
B          3.16005        1.66217        0.20934
B          4.62266        0.84956       -0.28004
B          0.35148       -1.72733        0.84240
B          1.73643       -2.42075        0.22069
B          3.18634       -1.61074        0.19498
B          4.63348       -0.77471       -0.28660
B          4.48702       -2.33636       -0.54639
B          3.17914       -3.23005       -0.38090
B          1.76369       -4.09295       -0.38172
B          0.35998       -3.33348        0.30072
B          0.34965       -4.76561       -0.53261
B         -2.50153       -3.36609       -0.03330
B         -1.08009       -4.17719       -0.26383
B         -2.53461       -1.72873        0.35846
B         -3.91149       -2.55219       -0.19373
B         -4.00422       -0.87173        0.26587
B         -1.09385       -2.55442        0.52997
B         -1.13488        2.53891        0.55354
B          3.25428        0.12005        0.60081
B         -1.07448       -0.81346        0.68067
B          4.45306        2.41420       -0.52568
B         -5.27051        1.69993       -0.70115
B         -5.25135        0.06585       -0.47056
B         -5.23219       -1.75335       -0.70898
B         -6.38839       -0.81274       -1.31820
B         -6.41281        0.73329       -1.31667
B          1.78809       -0.81599        0.79235
B         -1.87230        1.24941        1.02091
B          0.32905        1.72274        0.86014
B          5.94724        1.69627       -0.72773
B          6.14975       -0.00320       -0.79502
B          5.96969       -1.71526       -0.81016
B         -1.47404       -1.45016        1.75788
