45
isomer_0095.log	Energy: -113465.9349673
B         -2.62588       -1.48595       -0.42288
B         -2.86371       -3.13617       -0.23949
B         -1.62043       -3.91501        0.25800
B         -0.04076       -3.28745       -0.47096
B         -1.19405       -0.78514       -0.48783
B          1.67298       -0.92247       -1.01217
B          1.21581       -3.74777        0.70344
B         -3.95733       -0.56000       -0.09146
B          1.55102       -2.52395       -0.40664
B         -4.15983       -2.16808       -0.05058
B         -0.31731       -3.90546        1.03780
B          2.70206       -3.26795        0.49261
B          3.04161       -1.82244       -0.39456
B          4.48545       -1.10606        0.05304
B          0.46017        1.71722       -0.94912
B          1.98918        2.41953       -0.50221
B          3.35765        1.51755       -0.54425
B          4.69350        0.59405       -0.05574
B          4.67772        2.23482        0.45644
B          3.37243        3.11070        0.11956
B          2.05234        3.98001        0.25094
B          0.53291        3.33558       -0.40619
B          0.66770        4.58453        0.56259
B         -2.25641        3.41701        0.33339
B         -0.79515        4.08613        0.40452
B         -2.39307        1.77671       -0.36855
B         -3.59816        2.69839        0.42785
B         -3.83304        1.13432       -0.05767
B         -0.95038        2.53659       -0.34842
B         -1.45947       -2.58906       -1.19802
B          3.33570       -0.18126       -0.80070
B         -1.09292        0.89530       -0.72013
B          4.15665       -2.57912        0.81616
B         -5.44106       -1.29265        0.36869
B         -5.28198        0.40362        0.05801
B         -5.11923        1.97617        0.64629
B         -6.37546        1.18117        1.02143
B         -6.48981       -0.30685        0.93009
B          1.85417        0.79685       -1.00213
B         -1.20296       -2.24249        0.51841
B          0.10766       -1.75127       -1.10932
B          5.35319       -1.77834        1.23772
B          5.73933       -0.27849        1.06006
B          5.73765        1.26096        0.95993
B          0.31149       -0.02377       -1.07798
