45
isomer_0950.log	Energy: -112682.5001137
B          2.45715        1.89138       -0.45959
B          2.38468        3.52017       -0.04875
B          0.95367        4.29021        0.21367
B         -0.47170        3.41833       -0.34099
B          1.02679        0.95892       -0.77533
B         -1.83583        0.87576       -0.84365
B         -1.88348        4.13575        0.36774
B          3.95034        1.07897       -0.40550
B         -1.81953        2.47500       -0.25318
B          3.81638        2.75166        0.07840
B         -0.48174        4.84047        0.50854
B         -3.27908        3.23869        0.37553
B         -3.24954        1.62835       -0.21976
B         -4.67280        0.74752        0.26778
B         -0.31081       -1.60872       -0.96145
B         -1.65518       -2.37754       -0.33760
B         -3.13797       -1.63250       -0.27802
B         -4.61301       -0.87127        0.23815
B         -4.39718       -2.43040        0.45978
B         -3.05428       -3.26331        0.26091
B         -1.60602       -4.06242        0.22753
B         -0.24661       -3.22821       -0.45207
B         -0.16389       -4.67964        0.34812
B          2.63664       -3.15242       -0.16529
B          1.23868       -4.02901        0.08191
B          2.60734       -1.51004       -0.51501
B          4.02701       -2.29614       -0.00377
B          4.02099       -0.60274       -0.43391
B          1.17543       -2.37656       -0.68142
B          1.00047        2.67430       -0.59812
B         -3.28233        0.09732       -0.64316
B          1.07052       -0.63656       -0.80689
B         -4.56445        2.31217        0.54564
B          5.17312        1.99242        0.56236
B          5.23280        0.36472        0.30024
B          5.30835       -1.45629        0.49890
B          6.42920       -0.47175        1.10885
B          6.37258        1.07325        1.13845
B         -1.78022       -0.76839       -0.87269
B          2.26981       -3.42049        1.08326
B         -0.42235        1.82442       -0.89993
B         -6.02554        1.52494        0.74750
B         -6.15476       -0.17444        0.77911
B         -5.90257       -1.87813        0.75313
B          1.85890       -0.78775        0.05058
