45
isomer_0951.log	Energy: -113458.7580028
B         -2.54890        1.66141        0.63487
B         -2.53798        3.38285        0.05543
B         -1.18946        4.14713       -0.01886
B          0.27401        3.43715        0.65554
B         -1.20197        0.93744        1.06940
B          1.74835        0.92424        0.98616
B          1.64738        4.15906       -0.19808
B         -3.90537        0.91277        0.15277
B          1.70945        2.56994        0.47672
B         -3.79787        2.51426       -0.20166
B          0.22367        4.70766       -0.31425
B          3.01530        3.32262       -0.26793
B          3.08725        1.74655        0.22395
B          4.35904        0.78806       -0.39948
B          0.28907       -1.73426        1.46003
B          1.40511       -2.41356        0.04698
B          2.99942       -1.71974        0.10834
B          4.46077       -0.86796       -0.11152
B          4.20583       -2.50243       -0.76651
B          2.87148       -3.28649       -0.30277
B          1.55511       -4.14138       -0.00460
B          0.23243       -3.33171        0.94504
B          0.18093       -4.71801        0.08239
B         -2.52284       -3.31420       -0.04757
B         -1.22579       -4.12629        0.19202
B         -2.56697       -1.60833        0.43697
B         -3.80357       -2.45327       -0.31286
B         -3.89263       -0.85376        0.10152
B         -1.08541       -2.40864        0.26102
B         -1.20131        2.57746        0.74641
B          3.15020       -0.00010        0.49983
B         -1.21646       -0.73932        0.83157
B          4.33392        2.46521       -0.76512
B         -5.09179        1.69018       -0.77289
B         -5.15126        0.03603       -0.45105
B         -5.11694       -1.60932       -0.87133
B         -6.13032       -0.69939       -1.55811
B         -6.12522        0.79727       -1.52293
B          1.58145       -0.75364        0.51757
B          0.24779        0.00393        1.24659
B          0.32600        1.81903        1.21178
B          5.42694        1.53689       -1.28025
B          5.57117       -0.04033       -1.27463
B          5.31030       -1.56276       -1.26808
B          0.09972       -1.25227       -0.23240
