45
isomer_0952.log	Energy: -113489.7170553
B          2.36170        1.76247       -0.40273
B          2.29565        3.39111        0.21356
B          0.96053        4.24619        0.17895
B         -0.46964        3.52439       -0.60455
B          1.07132        1.16003       -1.14972
B         -1.56919        0.74999       -0.73397
B         -1.85248        4.17793        0.15812
B          3.71848        0.93300       -0.05678
B         -1.82458        2.50032       -0.58513
B          3.65027        2.54858        0.39121
B         -0.47755        4.81365        0.33066
B         -3.16335        3.23420        0.13998
B         -3.15758        1.63551       -0.24677
B         -4.51091        0.72002        0.15059
B         -0.31271       -1.91173       -1.27205
B         -1.63076       -2.60519       -0.53096
B         -2.98793       -1.81148       -0.10930
B         -4.38819       -0.91757        0.33194
B         -4.25209       -2.57706        0.81281
B         -2.89063       -3.37316        0.31583
B         -1.51726       -4.20314        0.26944
B         -0.15821       -3.37992       -0.52475
B         -0.14250       -4.76938        0.36112
B          2.60235       -3.28143        0.11855
B          1.25243       -4.16684        0.13818
B          2.55942       -1.63697       -0.36054
B          3.96776       -2.36469        0.29714
B          3.83556       -0.71913       -0.16694
B          1.41676       -2.82042       -0.89574
B          1.06370        2.80525       -0.70664
B         -3.15454       -0.09216       -0.45865
B          2.03683       -0.01490       -0.66742
B         -4.47579        2.36651        0.65006
B          4.94554        1.80384        0.95229
B          5.01645        0.14318        0.63985
B          5.27033       -1.54624        0.66582
B          6.33263       -0.56398        1.25611
B          6.13554        0.91453        1.48244
B         -1.59837       -0.84407       -0.67557
B         -0.13577       -0.09313       -1.06997
B         -0.40003        1.90728       -1.15238
B         -5.51847        1.41352        1.19105
B         -5.64473       -0.14123        1.26274
B         -5.38714       -1.69546        1.31735
B          1.12716       -1.22219       -1.25521
