45
isomer_0954.log	Energy: -111201.4531027
B         -2.59264       -1.50224       -0.56771
B         -2.63835       -3.14836       -0.22744
B         -1.26028       -4.02724        0.00773
B          0.22669       -3.22757       -0.50906
B         -1.10356       -0.64894       -0.83869
B          1.76958       -0.76554       -0.89906
B          1.58540       -4.07208        0.17289
B         -4.02433       -0.58533       -0.48598
B          1.63559       -2.37962       -0.37828
B         -4.02128       -2.28882       -0.06989
B          0.13952       -4.69433        0.28343
B          3.04250       -3.27049        0.22064
B          3.12438       -1.63754       -0.30603
B          4.60354       -0.88256        0.22327
B          0.41542        1.83480       -0.91628
B          1.81259        2.47146       -0.26107
B          3.24325        1.62029       -0.22731
B          4.66256        0.73493        0.26235
B          4.54949        2.29140        0.54361
B          3.27960        3.22757        0.37764
B          1.88484        4.13453        0.37117
B          0.46944        3.42509       -0.34832
B          0.48793        4.85438        0.51414
B         -2.39426        3.54128       -0.06581
B         -0.95625        4.30508        0.20905
B         -2.46796        1.91454       -0.48516
B         -3.83640        2.77816        0.05254
B         -3.96278        1.10147       -0.44522
B         -1.00722        2.68945       -0.61521
B         -1.19199       -2.37431       -0.73755
B          3.26729       -0.10214       -0.66485
B         -1.04452        0.96911       -0.79959
B          4.37691       -2.43841        0.42933
B         -5.32017       -1.44827        0.44170
B         -5.25556        0.18680        0.24725
B         -5.19395        2.01076        0.52527
B         -6.39911        1.08527        1.09393
B         -6.45571       -0.46597        1.05645
B          1.82958        0.87891       -0.85933
B         -1.90512       -2.44235        2.56477
B          0.28965       -1.61203       -0.99956
B          5.90828       -1.78847        0.67395
B          6.16502       -0.08557        0.78202
B          6.03039        1.64988        0.82762
B         -1.76800       -1.81700       -0.17335
