45
isomer_0955.log	Energy: -113964.0180185
B         -0.85323       -1.80962       -0.91701
B          0.50310       -2.69913        1.28823
B          0.97697       -4.16352        0.18854
B          1.70526       -3.15674       -1.07254
B         -0.04140       -0.41501       -1.69546
B          1.53186       -0.23420       -0.87513
B          3.42322       -3.12493       -0.11179
B         -2.03099       -0.93520        0.10012
B          2.41248       -1.65959       -0.64843
B         -0.76175       -1.84322        0.96655
B          2.45795       -4.32495       -0.10175
B          3.69604       -1.70434        0.51978
B          3.16874       -0.20595       -0.26249
B          3.82545        1.21716        0.19269
B         -0.99093        1.07099       -1.54593
B         -0.23794        2.58463       -1.02935
B          1.37601        2.66442       -0.69306
B          2.94372        2.66629        0.00752
B          1.89324        4.06528        0.23749
B          0.43837        3.99463       -0.38624
B         -1.16009        3.76472       -0.15107
B         -1.88520        2.31201       -0.74571
B         -2.47218        3.28188        0.38596
B         -4.23428        0.65713        0.00297
B         -3.22142        1.90983        0.48909
B         -3.41554       -0.68795       -1.25208
B         -4.88336       -0.80736       -0.82126
B         -3.72969       -1.11048        0.57373
B         -2.50823        0.68897       -0.55763
B         -0.11125       -3.10796       -0.35330
B          2.40033        1.30286       -0.81486
B         -1.80473       -0.54388       -1.61556
B          4.23130       -0.22363        1.07165
B         -2.19691       -1.24347        1.70338
B         -2.85351        0.42203        1.24832
B         -5.50280       -0.47213        0.47869
B         -4.66721       -0.15975        1.72779
B         -3.43850       -0.78434        2.38957
B          0.67078        1.16663       -1.27375
B          2.04251       -2.72870        0.83887
B          0.84422       -1.85365       -1.65257
B          4.51339        1.14733        1.65374
B          4.04099        2.60043        1.34621
B          3.18790        3.85481        1.03851
B          0.71732       -1.37232        0.12755
