45
isomer_0956.log	Energy: -112640.6938083
B          2.75016        1.91602       -0.46997
B          2.68142        3.45411       -0.05709
B          1.24192        4.18074        0.17868
B         -0.23250        3.38598       -0.36138
B          1.02698        0.76275       -0.77419
B         -1.78324        0.86521       -0.83880
B         -1.59689        4.16338        0.33772
B          4.10553        0.77214       -0.35136
B         -1.66052        2.50037       -0.26542
B          4.11795        2.57566        0.13681
B         -0.18542        4.76792        0.46597
B         -3.04483        3.34375        0.35536
B         -3.13169        1.72749       -0.21521
B         -4.60355        0.91606        0.27704
B         -0.46483       -1.71874       -0.89616
B         -1.82709       -2.43556       -0.27543
B         -3.23788       -1.59017       -0.23750
B         -4.64814       -0.72166        0.25675
B         -4.55646       -2.30020        0.51590
B         -3.24458       -3.21837        0.32483
B         -1.85581       -4.11147        0.29725
B         -0.45297       -3.38038       -0.38344
B         -0.45446       -4.78992        0.41219
B          2.41881       -3.44594       -0.08344
B          0.97966       -4.25599        0.14695
B          2.52942       -1.77514       -0.42145
B          3.86488       -2.63069        0.08431
B          4.02223       -0.94796       -0.36013
B          1.01354       -2.64403       -0.61139
B          1.17812        2.57302       -0.63535
B         -3.27035        0.15805       -0.62391
B          1.01990       -0.72975       -0.78341
B         -4.42358        2.49655        0.54930
B          5.34103        1.60751        0.63484
B          5.26499       -0.05629        0.39213
B          5.18229       -1.86752        0.59172
B          6.34213       -0.96022        1.20561
B          6.42887        0.55525        1.23565
B         -1.84072       -0.80115       -0.83817
B          2.26272        0.96407       -0.38658
B         -0.31548        1.73433       -0.91923
B         -5.86960        1.75044        0.73901
B         -6.09291        0.08536        0.78038
B         -5.95376       -1.56616        0.77388
B          0.97471       -1.30886        0.09672
