45
isomer_0958.log	Energy: -113559.6759274
B          2.75024        1.47028       -0.77304
B          2.72442        3.03859        0.00251
B          1.44032        3.89381        0.15876
B         -0.08695        3.31421       -0.47483
B          1.07938        0.71677       -1.03632
B         -1.67313        0.86413       -0.83911
B         -1.35934        4.09191        0.36107
B          4.17635        0.61991       -0.91479
B         -1.56531        2.53663       -0.40139
B          4.06098        2.17591        0.28418
B          0.07594        4.55514        0.51997
B         -2.84728        3.37548        0.31487
B         -3.01853        1.83300       -0.17597
B         -4.51449        1.04255        0.13357
B         -0.48193       -1.69321       -0.85372
B         -1.98268       -2.41009       -0.46025
B         -3.37299       -1.53226       -0.35358
B         -4.73949       -0.58689       -0.20691
B         -4.69231       -2.20467        0.47550
B         -3.36820       -3.12340        0.14310
B         -2.04586       -4.03502        0.25001
B         -0.58371       -3.37458       -0.40430
B         -0.68153       -4.69539        0.48337
B          2.23289       -3.44519        0.15341
B          0.76574       -4.18568        0.24346
B          2.40390       -1.92718       -0.50664
B          3.65100       -2.77290        0.35391
B          3.79081       -1.06933       -0.07993
B          0.88839       -2.61578       -0.49818
B          1.34307        2.39645       -0.72841
B         -3.26899        0.17555       -0.65999
B          0.97656       -0.92594       -0.97003
B         -4.27249        2.68538        0.64394
B          5.39543        1.34967        0.15538
B          5.31234       -0.28752        0.11367
B          4.89197       -1.89478        0.86520
B          4.65355       -0.61589        1.71923
B          4.95105        0.91826        1.62605
B         -1.79637       -0.72290       -0.72355
B          3.59596        0.53178        0.74902
B         -0.21987        1.68164       -1.04746
B         -5.53322        1.87835        1.02182
B         -5.83598        0.36589        0.96837
B         -5.66688       -1.17109        0.99090
B          2.44720       -0.22156       -0.62289
