45
isomer_0959.log	Energy: -113466.8614869
B         -2.75343        1.52668        0.73636
B         -2.78319        3.18288        0.07834
B         -1.45946        4.00927       -0.09854
B          0.09924        3.32997        0.53581
B         -1.30880        0.77978        0.91503
B          1.50875        0.69066        0.15674
B          1.38204        4.09689       -0.40778
B         -4.04104        0.71106        0.25779
B          1.47486        2.45756        0.10133
B         -4.15205        2.33538        0.06667
B         -0.06487        4.57883       -0.44991
B          2.80955        3.34151       -0.41507
B          2.92894        1.72097       -0.06167
B          4.49426        1.06352        0.14249
B          0.38142       -1.71752        1.24512
B          1.63764       -2.16904       -0.03619
B          3.21894       -1.59797        0.42043
B          4.53248       -0.60577       -0.11643
B          4.53546       -2.28395       -0.49431
B          3.16630       -3.07307       -0.23783
B          1.83352       -3.91954       -0.16789
B          0.45508       -3.30143        0.69923
B          0.45646       -4.52803       -0.34778
B         -2.36377       -3.31942       -0.20201
B         -1.00049       -4.07923       -0.16087
B         -2.41212       -1.60566        0.11516
B         -3.72455       -2.45699       -0.46260
B         -3.87321       -0.93497        0.09798
B         -1.04971       -2.53082        0.41959
B         -1.37906        2.43341        0.48451
B          3.20138        0.14438        0.66754
B         -0.97050       -0.77697        0.32869
B          4.24141        2.61068       -0.67686
B         -5.43069        1.52746       -0.39168
B         -5.38474       -0.19921       -0.12030
B         -5.18483       -1.78370       -0.69326
B         -6.41543       -0.95041       -1.12864
B         -6.44024        0.54617       -1.09932
B          1.82305       -0.76220        1.14231
B          0.23908        0.02685        1.27178
B          0.16630        1.70821        0.91703
B          5.42062        1.71779       -0.98020
B          5.79164        0.19631       -0.88302
B          5.71945       -1.34778       -0.83947
B          0.67426       -0.79256       -0.32830
