45
isomer_0096.log	Energy: -113506.8935896
B          2.31852        1.80825       -0.33937
B          2.13753        3.38468        0.35512
B          0.74691        4.10598        0.40190
B         -0.62784        3.29783       -0.29448
B          0.99324        0.88868       -0.88404
B         -1.83673        0.69784       -0.85012
B         -2.08837        3.96903        0.32215
B          3.75886        1.07035       -0.13371
B         -1.98628        2.31933       -0.34680
B          3.58326        2.69683        0.39300
B         -0.72705        4.61808        0.58105
B         -3.40929        3.06122        0.13940
B         -3.38981        1.50438       -0.39225
B         -4.75810        0.52188       -0.18428
B         -0.30306       -1.64703       -1.06017
B         -1.57537       -2.47787       -0.28175
B         -3.11104       -1.87023       -0.26524
B         -4.64456       -1.12215       -0.14838
B         -4.31479       -2.64792        0.66194
B         -2.83575       -3.27890        0.50957
B         -1.33044       -3.81965        0.79308
B         -0.08072       -3.18325       -0.23870
B          0.12198       -3.93345        1.16562
B          2.81648       -3.11578       -0.15788
B          1.47721       -3.38351        0.59909
B          2.73287       -1.53251       -1.26913
B          4.07907       -2.24821       -0.19120
B          3.95422       -0.62009       -0.60821
B          1.30074       -2.33777       -0.78090
B          0.88600        2.57221       -0.43907
B         -3.35168       -0.21544       -0.78621
B          1.15399       -0.71718       -1.17249
B         -4.76855        2.16931        0.38764
B          4.91369        1.90465        0.80841
B          5.21769        0.32297        0.07459
B          5.39167       -1.36646        0.17071
B          6.35086       -0.49494        0.94465
B          6.01444        0.93458        1.33999
B         -1.72577       -0.90376       -0.90892
B          2.44028       -1.57258        0.48421
B         -0.51702        1.64224       -0.82818
B         -5.85766        1.20504        0.76579
B         -5.91924       -0.35389        0.81229
B         -5.57338       -1.84679        0.94628
B          2.34300       -0.00600       -0.09501
