45
isomer_0960.log	Energy: -113450.2855287
B         -2.51012        1.72083        0.35895
B         -2.37237        3.34908       -0.29553
B         -1.00507        4.07959       -0.43028
B          0.45976        3.38696        0.43640
B         -1.07870        0.90829        0.62673
B          1.85010        0.81015        0.80197
B          1.87859        3.99787       -0.31910
B         -3.96272        1.04142        0.37956
B          1.88091        2.47522        0.48369
B         -3.77821        2.49253       -0.42505
B          0.46157        4.52491       -0.66659
B          3.28444        3.20512       -0.15710
B          3.29169        1.61114        0.35868
B          4.72963        0.67751        0.20843
B          0.19820       -1.67619        1.12003
B          1.61503       -2.47127        0.34646
B          3.12150       -1.78188        0.38312
B          4.48321       -0.95143       -0.12446
B          4.32773       -2.55584       -0.66329
B          2.85760       -3.28490       -0.38118
B          1.41267       -3.81421       -0.65666
B         -0.01766       -3.09523        0.22571
B         -0.06788       -4.12059       -1.02499
B         -2.66070       -3.14031        0.23254
B         -1.47505       -3.82012       -0.52209
B         -2.64965       -1.51346        0.72039
B         -4.06229       -2.24764        0.11741
B         -4.04758       -0.64079        0.51922
B         -1.34155       -2.12105       -0.49406
B         -1.08039        2.57785        0.33818
B          3.35435       -0.11722        0.80916
B         -1.16200       -0.71741        0.40955
B          4.59019        2.33682       -0.44608
B         -5.18413        1.84722       -0.66971
B         -5.33685        0.22678       -0.13504
B         -5.30362       -1.46871       -0.39015
B         -6.41421       -0.52066       -1.05487
B         -6.40173        0.96297       -1.10926
B          1.75448       -0.89633        0.99087
B         -1.32806       -2.44099        1.24669
B          0.36845        1.74736        0.90478
B          5.64276        1.32916       -0.93300
B          5.80918       -0.19012       -0.95091
B          5.52856       -1.74548       -1.04937
B          0.33993        0.02308        0.88025
