45
isomer_0962.log	Energy: -113228.5375974
B         -2.66445       -1.56655       -0.74053
B         -2.63266       -3.23082       -0.08737
B         -1.26986       -3.97111        0.12419
B          0.15620       -3.30455       -0.43757
B         -1.37848       -0.71488       -1.38751
B          1.56397       -0.79177       -0.96688
B          1.52685       -4.07896        0.41478
B         -4.00163       -0.75764       -0.36540
B          1.57417       -2.48073       -0.32503
B         -3.93844       -2.38208        0.06686
B          0.08117       -4.60448        0.51178
B          2.92043       -3.25948        0.38190
B          2.99079       -1.70932       -0.19708
B          4.36250       -0.85338        0.22550
B          0.35039        1.78820       -1.03047
B          1.72464        2.52475       -0.38100
B          3.09839        1.69471       -0.28510
B          4.38788        0.81252        0.17796
B          4.47949        2.51664        0.57049
B          3.06240        3.27174        0.28563
B          1.75189        4.17139        0.33879
B          0.32072        3.42439       -0.42699
B          0.31938        4.74595        0.46542
B         -2.48547        3.31248        0.03433
B         -1.08282        4.12796        0.17123
B         -2.50852        1.66276       -0.50123
B         -3.82738        2.50615        0.18898
B         -3.96743        0.95120       -0.29099
B         -1.16374        2.58519       -0.64083
B         -1.29832       -2.37616       -0.76780
B          3.12554       -0.00615       -0.59811
B         -1.06570        0.85462       -0.98070
B          4.31494       -2.57237        0.64327
B         -5.21735       -1.53628        0.67826
B         -5.16347        0.09697        0.42837
B         -5.18871        1.72574        0.74613
B         -6.21419        0.85996        1.48755
B         -6.20165       -0.67661        1.46769
B          1.64373        0.88245       -0.97366
B          0.66005       -1.45448        0.57111
B          0.20407       -1.67010       -1.28748
B          5.51591       -1.64638        0.99378
B          5.72186       -0.07715        0.94660
B          5.59540        1.53276        0.93765
B         -0.18251       -0.32711       -0.18653
