45
isomer_0963.log	Energy: -111676.0949184
B          2.58399        1.72821       -0.42675
B          2.57039        3.35949       -0.04577
B          1.16093        4.18188        0.19347
B         -0.29926        3.35574       -0.35895
B          1.08863        0.82025       -0.74186
B         -1.77789        0.85319       -0.82839
B         -1.68736        4.13971        0.32775
B          4.03221        0.82316       -0.34802
B         -1.69101        2.46343       -0.26553
B          3.98281        2.52791        0.11105
B         -0.26307        4.79341        0.46768
B         -3.12108        3.29812        0.33966
B         -3.15878        1.67719       -0.22678
B         -4.62160        0.86540        0.26569
B         -0.37003       -1.70908       -0.88884
B         -1.74818       -2.41019       -0.26714
B         -3.19527       -1.59587       -0.23130
B         -4.63841       -0.75783        0.26173
B         -4.49371       -2.32131        0.50978
B         -3.19138       -3.21953        0.33448
B         -1.77636       -4.08999        0.32059
B         -0.37207       -3.33182       -0.36255
B         -0.36222       -4.77306        0.45856
B          2.49642       -3.37411       -0.04812
B          1.07316       -4.19002        0.18689
B          2.54250       -1.72093       -0.41851
B          3.91977       -2.56183        0.10704
B          4.01118       -0.87203       -0.34864
B          1.08992       -2.56130       -0.59145
B          1.14389        2.55348       -0.59261
B         -3.25930        0.13959       -0.62561
B          1.08290       -0.77611       -0.73766
B         -4.44508        2.42650        0.51593
B          5.29029        1.69408        0.61413
B          5.26719        0.05796        0.37885
B          5.24683       -1.76928        0.60965
B          6.41531       -0.82856        1.21061
B          6.43902        0.71769        1.21502
B         -1.79772       -0.79764       -0.82861
B          2.23324        0.96889       -0.32561
B         -0.31879        1.74597       -0.89314
B         -5.94499        1.71581        0.72201
B         -6.15409        0.01325        0.78241
B         -5.97712       -1.70222        0.78609
B          0.99420       -1.55760       -0.31723
