45
isomer_0964.log	Energy: -113675.8868601
B          2.50927       -1.75977        0.48840
B          2.42763       -3.33469       -0.04018
B          1.04769       -4.15729       -0.12301
B         -0.35081       -3.38466        0.51422
B          1.12997       -0.84854        1.04224
B         -1.78624       -0.83036        0.91087
B         -1.74804       -4.14439       -0.24583
B          3.95651       -0.91043        0.21572
B         -1.80197       -2.53259        0.48851
B          3.80985       -2.53718       -0.29291
B         -0.34154       -4.74592       -0.35186
B         -3.09192       -3.28076       -0.26572
B         -3.17356       -1.68051        0.26042
B         -4.53240       -0.79807       -0.23703
B         -0.31297        1.83078        1.08759
B         -1.72458        2.55146        0.43107
B         -3.12903        1.73333        0.22111
B         -4.54667        0.89391       -0.14582
B         -4.32629        2.49940       -0.77084
B         -3.00855        3.34035       -0.27882
B         -1.64214        4.16982       -0.25842
B         -0.26906        3.40296        0.53886
B         -0.21999        4.74801       -0.35329
B          2.51340        3.30376       -0.03685
B          1.15652        4.14918       -0.10898
B          2.56301        1.73057        0.53028
B          3.86945        2.48499       -0.27592
B          3.98404        0.84540        0.22472
B          1.18571        2.57762        0.78893
B          1.11941       -2.58977        0.76495
B         -3.29376        0.01602        0.60941
B          1.16998        0.85082        1.06851
B         -4.40686       -2.44463       -0.74915
B          5.06094       -1.73870       -0.86447
B          5.19562       -0.04439       -0.52277
B          5.10435        1.65185       -0.84539
B          6.10445        0.70685       -1.60591
B          6.08443       -0.81391       -1.61282
B         -1.71811        0.84349        0.78847
B          2.60981       -0.01600        0.74603
B         -0.36900       -1.82502        1.11653
B         -5.47286       -1.51859       -1.30167
B         -5.61970        0.03328       -1.30481
B         -5.37305        1.56949       -1.33865
B         -0.34294        0.00282        1.09430
