45
isomer_0966.log	Energy: -113428.1208651
B          2.81079       -1.44161        0.47649
B          3.26555       -3.08925        0.16673
B          1.83771       -2.61987       -0.55122
B          0.22766       -2.87721        0.32506
B          1.17751       -1.24035        0.61510
B         -1.94205       -1.17985        1.23823
B         -0.91819       -3.20330       -1.24483
B          4.11831       -0.49038        0.21783
B         -1.13359       -1.83845       -0.28416
B          4.39395       -2.08089       -0.00483
B          0.51490       -2.87714       -1.30262
B         -2.41917       -2.84080       -1.15489
B         -2.93831       -1.87003        0.02692
B         -4.49005       -1.08562       -0.29401
B         -0.57536        1.28926        0.37901
B         -2.04919        2.14397        0.68372
B         -3.48098        1.31401        0.64160
B         -4.88795        0.34742        0.54509
B         -4.83814        2.10527        0.06680
B         -3.51704        2.95287        0.34275
B         -2.17933        3.81740        0.09218
B         -0.74931        2.90522       -0.08875
B         -0.83342        4.46485       -0.26772
B          2.04863        3.26178       -0.39298
B          0.62993        3.89891       -0.40822
B          2.26420        1.50483        0.10269
B          3.48242        2.68717       -0.32138
B          3.82271        1.18597        0.13621
B          0.80441        2.17537       -0.15129
B          2.05781       -2.91176        1.21633
B         -3.47080       -0.42762        0.92323
B          0.99100        0.50949        0.34516
B         -3.92443       -2.36807       -1.29544
B          5.62685       -1.03160       -0.32568
B          5.32958        0.58552       -0.02825
B          5.06032        2.18993       -0.49717
B          6.38727        1.52062       -0.87707
B          6.64707        0.04541       -0.82508
B         -1.94777        0.48425        0.91104
B         -0.46092       -0.44308        0.36798
B         -0.54918       -1.89272        1.57076
B         -5.32942       -1.74249       -1.46446
B         -5.83533       -0.37706       -0.99838
B         -5.80410        1.09312       -0.53170
B          0.77540       -2.55350        1.91923
