45
isomer_0968.log	Energy: -113441.9182616
B         -2.45072        1.82303        0.46453
B         -2.37491        3.45144       -0.11212
B         -0.98046        4.21543       -0.28303
B          0.44074        3.42748        0.33750
B         -1.14770        0.95956        1.03337
B          1.77422        0.86429        0.74065
B          1.83275        4.12967       -0.42692
B         -3.72909        1.01820       -0.01868
B          1.84799        2.55018        0.45379
B         -3.79910        2.69075       -0.16013
B          0.45331        4.74931       -0.56757
B          3.19267        3.24514       -0.35269
B          3.21467        1.67845        0.17004
B          4.64513        0.72936        0.04732
B          0.27832       -1.65400        1.30297
B          1.55362       -2.48734        0.56486
B          3.02637       -1.74260        0.31723
B          4.41417       -0.90598       -0.20909
B          4.26619       -2.56200       -0.59693
B          2.83063       -3.27146       -0.16986
B          1.38204       -3.97834       -0.24716
B         -0.07570       -3.24123        0.38998
B          0.05206       -4.49803       -0.66726
B         -2.66159       -3.19303       -0.79932
B         -1.38302       -4.10198       -0.81489
B         -2.47441       -1.74034        0.39395
B         -3.73967       -2.13667       -0.64989
B         -3.68529       -0.64564       -0.00580
B         -1.81999       -3.41958        0.58822
B         -1.08925        2.68743        0.57376
B          3.25679       -0.02663        0.65845
B         -1.28487       -0.63150        1.02330
B          4.49773        2.36098       -0.69080
B         -5.12942        1.93431       -0.51021
B         -5.17588        0.23681       -0.07867
B         -5.16654       -1.31841       -0.67726
B         -6.37258       -0.47419       -0.99334
B         -6.24822        1.00758       -1.05835
B          1.68521       -0.78841        1.00508
B         -1.16874       -2.28434        1.41801
B          0.39856        1.88407        0.97531
B          5.52086        1.32858       -1.14716
B          5.69657       -0.21168       -1.10542
B          5.44685       -1.75373       -1.08408
B          0.24973        0.09506        0.96830
