45
isomer_0097.log	Energy: -110993.6328589
B          2.52929        1.90497       -0.45426
B          2.47722        3.53679       -0.05171
B          1.04919        4.32391        0.20902
B         -0.38661        3.45885       -0.34575
B          1.09374        0.97692       -0.76544
B         -1.78108        0.92739       -0.83702
B         -1.79473        4.19582        0.36024
B          4.01206        1.07097       -0.39948
B         -1.74373        2.52554       -0.25482
B          3.90770        2.75428        0.08074
B         -0.38822        4.89695        0.50213
B         -3.20242        3.30909        0.36969
B         -3.18662        1.69539       -0.21882
B         -4.62063        0.83552        0.27347
B         -0.27659       -1.58669       -0.94523
B         -1.63610       -2.32853       -0.32220
B         -3.11434       -1.56444       -0.26406
B         -4.58474       -0.78296        0.25100
B         -4.38143       -2.33973        0.47379
B         -3.05825       -3.19297        0.27945
B         -1.61266       -4.01584        0.24627
B         -0.23902       -3.19790       -0.43814
B         -0.17637       -4.65762        0.36952
B          2.62563       -3.15697       -0.14462
B          1.23405       -4.01353        0.09330
B          2.60509       -1.51391       -0.50172
B          4.02011       -2.31582        0.01037
B          4.04948       -0.61687       -0.42290
B          1.19278       -2.36747       -0.66895
B          1.08044        2.69941       -0.59862
B         -3.23802        0.16905       -0.63625
B          1.12964       -0.64212       -0.78791
B         -4.48637        2.39299        0.53948
B          5.25202        1.97231        0.56724
B          5.28411        0.34486        0.31072
B          5.32876       -1.48884        0.51920
B          6.47568       -0.51674        1.12902
B          6.44127        1.03545        1.15057
B         -1.74459       -0.71807       -0.85986
B          1.80641       -3.19909        1.54570
B         -0.35306        1.86225       -0.89736
B         -5.97773        1.64570        0.75098
B         -6.13443       -0.07218        0.79314
B         -5.89833       -1.79725        0.77379
B          0.42136       -2.44888       -0.78371
