45
isomer_0970.log	Energy: -110909.4469560
B         -2.59071        1.74933        0.37144
B         -2.57282        3.38955        0.00138
B         -1.16098        4.21537       -0.22556
B          0.28817        3.37389        0.33076
B         -1.13727        0.84969        0.68301
B          1.73680        0.86707        0.79068
B          1.68686        4.15789       -0.34256
B         -4.05223        0.88159        0.28133
B          1.66833        2.47506        0.23922
B         -3.98235        2.57605       -0.16469
B          0.26580        4.82808       -0.48892
B          3.11544        3.30522       -0.35109
B          3.13107        1.68029        0.20569
B          4.59131        0.86463       -0.28468
B          0.29187       -1.68369        0.83059
B          1.67643       -2.38058        0.21084
B          3.13651       -1.58059        0.18664
B          4.59401       -0.75438       -0.29414
B          4.43092       -2.31084       -0.54974
B          3.12629       -3.19894       -0.38910
B          1.70057       -4.05642       -0.39057
B          0.29928       -3.28501        0.29184
B          0.28174       -4.72959       -0.54478
B         -2.56165       -3.30637       -0.03775
B         -1.14706       -4.12477       -0.27431
B         -2.58500       -1.67065        0.35145
B         -3.97389       -2.49569       -0.19433
B         -4.04942       -0.80680        0.27147
B         -1.15479       -2.49355        0.52026
B         -1.16325        2.57497        0.54988
B          3.21391        0.14766        0.59401
B         -1.13457       -0.76987        0.67354
B          4.42302        2.42341       -0.52207
B         -5.30136        1.77212       -0.68359
B         -5.29756        0.13962       -0.45918
B         -5.29559       -1.69015       -0.70382
B         -6.45785       -0.73373       -1.30938
B         -6.46044        0.81897       -1.30030
B          1.73954       -0.77892        0.78106
B         -1.48781       -0.44203        2.51810
B          0.28611        1.76637        0.85075
B          5.93440        1.71609       -0.72881
B          6.13281        0.00357       -0.80233
B          5.93797       -1.72666       -0.81955
B         -0.12255       -1.55726        0.32731
