45
isomer_0971.log	Energy: -113547.2553538
B          1.27435       -1.72171       -0.12876
B          1.24446       -3.51348       -0.30327
B          0.04911       -4.30741        0.31225
B         -1.09934       -3.35101        1.15708
B          0.04233       -0.58224        0.26845
B         -1.65391       -0.53834        0.90785
B         -2.62516       -3.80922        0.55049
B          3.00408       -1.46476       -0.42130
B         -2.27609       -2.15546        0.99444
B          2.39206       -2.81323       -1.09933
B         -1.43287       -4.74885        0.45404
B         -3.70787       -2.61951        0.21440
B         -3.20712       -1.07691        0.20124
B         -4.08471        0.03908       -0.73681
B          0.06679        1.98451        1.60157
B         -0.92441        2.80623        0.58588
B         -2.08731        2.09811       -0.29685
B         -3.69776        1.65029       -0.60904
B         -3.11621        3.10975       -1.28957
B         -1.76862        3.68600       -0.59362
B         -0.40529        4.36622       -0.12163
B          0.49384        3.53254        1.15131
B          0.99816        4.77852        0.23646
B          3.21380        2.69651        0.75868
B          2.13893        3.89101        0.66260
B          2.67101        1.14419        0.74196
B          4.22588        1.61204        0.11500
B          3.78713       -0.01880        0.19654
B          1.69587        2.31354        1.31015
B          0.57550       -2.83423        1.06676
B         -2.69057        0.57175        0.13847
B          0.96393        0.60692        1.19277
B         -4.64940       -1.57816       -0.64227
B          3.62998       -2.19222       -1.87353
B          4.28626       -0.75142       -1.23342
B          5.11375        0.65678       -0.75492
B          5.68813       -0.33207       -1.87050
B          4.98928       -1.55577       -2.41178
B         -0.90533        0.94899        0.60933
B          0.97418       -1.20783        1.63056
B         -0.66513       -1.69930        1.55105
B         -5.38755       -0.49164       -1.45692
B         -5.05066        1.00794       -1.72729
B         -4.33713        2.39616       -1.87082
B          2.25366       -0.53349        0.83231
