45
isomer_0972.log	Energy: -113476.5824187
B         -2.51365        1.65204        0.56858
B         -2.47151        3.31274       -0.07574
B         -1.09542        4.09547       -0.29184
B          0.33771        3.38503        0.34353
B         -1.15071        0.91089        1.03084
B          1.78587        0.89097        0.93834
B          1.72168        4.13896       -0.42736
B         -3.93993        0.92978        0.30714
B          1.77456        2.55045        0.44415
B         -3.81147        2.50176       -0.12219
B          0.31987        4.69306       -0.58389
B          3.09065        3.28024       -0.35537
B          3.16452        1.73941        0.22854
B          4.50934        0.77265       -0.19937
B          0.17829       -1.59766        0.50248
B          1.63882       -2.47783        0.31650
B          3.10628       -1.71328        0.38926
B          4.57789       -0.86500        0.16617
B          4.37813       -2.47837       -0.45530
B          3.01200       -3.31530       -0.07332
B          1.63438       -4.12688       -0.16147
B          0.11910       -3.31631        0.56439
B          0.28040       -4.50418       -0.59148
B         -2.50442       -3.09395       -0.43569
B         -1.14076       -3.83399       -0.52194
B         -2.59582       -1.69943        0.64604
B         -3.87087       -2.29554       -0.36927
B         -3.98175       -0.82899        0.30904
B         -1.34287       -2.73363        1.06262
B         -1.15097        2.60590        0.61682
B          3.26131        0.03613        0.68003
B         -1.29414       -0.71030        0.68998
B          4.44338        2.43539       -0.71565
B         -5.20291        1.73566       -0.52314
B         -5.28184        0.09640       -0.10704
B         -5.25425       -1.51244       -0.62527
B         -6.33948       -0.58424       -1.20285
B         -6.30951        0.88974       -1.15175
B          1.66843       -0.75850        0.74706
B         -1.13077       -2.01227       -0.52665
B          0.35820        1.86630        1.03686
B          5.57310        1.49348       -1.13268
B          5.74284       -0.04967       -1.04021
B          5.45618       -1.56770       -0.99221
B          0.25010        0.06304        1.09333
