45
isomer_0974.log	Energy: -113675.8844103
B          2.56463        1.72981       -0.53167
B          2.51608        3.30337        0.03635
B          1.15990        4.14897        0.10796
B         -0.26687        3.40342       -0.54034
B          1.17121        0.85100       -1.06845
B         -1.71610        0.84350       -0.78275
B         -1.63904        4.17071        0.25793
B          3.98488        0.84380       -0.22512
B         -1.72217        2.55205       -0.42923
B          3.87126        2.48370        0.27541
B         -0.21644        4.74806        0.35206
B         -3.00611        3.34247        0.27930
B         -3.12712        1.73473       -0.21876
B         -4.54691        0.89682        0.14258
B         -0.37096       -1.82462       -1.11742
B         -1.80383       -2.53194       -0.48941
B         -3.17457       -1.67918       -0.26095
B         -4.53134       -0.79496        0.24057
B         -4.40870       -2.44290        0.74883
B         -3.09411       -3.27917        0.26584
B         -1.75105       -4.14381        0.24491
B         -0.35338       -3.38443       -0.51406
B         -0.34492       -4.74587        0.35140
B          2.42548       -3.33622        0.03924
B          1.04486       -4.15756        0.12278
B          2.50741       -1.76067       -0.48775
B          3.80784       -2.53856        0.29286
B          3.95536       -0.91211       -0.21550
B          1.11731       -2.59033       -0.76448
B          1.18761        2.57718       -0.78899
B         -3.29313        0.01686       -0.60908
B          1.12864       -0.84889       -1.04034
B         -4.32404        2.50148        0.77080
B          5.10550        1.64932        0.84482
B          5.19544       -0.04703        0.52290
B          5.05908       -1.74104        0.86519
B          6.08332       -0.81690        1.61353
B          6.10466        0.70365        1.60611
B         -1.78887       -0.83030       -0.91500
B          2.60994       -0.01679       -0.74663
B         -0.31147        1.83034       -1.08616
B         -5.37026        1.57090        1.33856
B         -5.62032        0.03534        1.30425
B         -5.47601       -1.51695        1.29986
B         -0.34269        0.00277       -1.09196
