45
isomer_0975.log	Energy: -113465.3802514
B         -2.66196       -1.54771       -0.98379
B         -2.73105       -3.29977       -0.23545
B         -1.31120       -3.79637        0.15007
B          0.18483       -3.26774       -0.61349
B         -1.15332       -0.80224       -0.16512
B          1.72527       -0.82580       -0.74146
B          1.52473       -4.04459        0.23693
B         -3.96831       -0.67635       -0.35956
B          1.63746       -2.48236       -0.36671
B         -3.73019       -2.22363        0.29589
B          0.09670       -4.40860        0.50961
B          3.01445       -3.32445        0.21471
B          3.06854       -1.72234       -0.07433
B          4.55218       -0.87630        0.15676
B          0.38776        1.69951       -0.82890
B          1.88068        2.53916       -0.37456
B          3.28494        1.66612       -0.16911
B          4.70380        0.79478       -0.13873
B          4.61394        2.41342        0.54036
B          3.23396        3.29032        0.22869
B          1.86565        4.13128        0.21510
B          0.40638        3.34378       -0.46651
B          0.43820        4.73076        0.30971
B         -2.38763        3.33745       -0.04672
B         -0.95242        4.15595        0.07182
B         -2.48868        1.80198       -0.67220
B         -3.82336        2.68899        0.14237
B         -3.90730        1.04307       -0.18150
B         -1.08178        2.54381       -0.62238
B         -1.26839       -2.44433       -1.08995
B          3.24744       -0.01940       -0.57002
B          0.20156        0.07687       -0.69267
B          4.37774       -2.56503        0.59763
B         -5.08629       -1.39549        0.76613
B         -5.32452        0.19592        0.15319
B         -5.08705        1.92195        0.64442
B         -6.02729        0.95957        1.41892
B         -6.14412       -0.53396        1.39545
B          1.76186        0.84884       -0.57224
B         -1.91282       -2.07931        0.60495
B          0.23087       -1.58733       -1.05756
B          5.60094       -1.67936        1.00864
B          5.84211       -0.15068        0.96588
B          5.64173        1.40371        1.00723
B         -2.47601        0.16591       -0.61155
