45
isomer_0977.log	Energy: -113441.9660584
B          2.45261        1.82253       -0.46895
B          2.37620        3.45077        0.11069
B          0.98211        4.21673        0.27995
B         -0.43890        3.42709       -0.33833
B          1.14865        0.95875       -1.03480
B         -1.77514        0.86238       -0.72663
B         -1.83146        4.13194        0.42263
B          3.73217        1.01752        0.01178
B         -1.84637        2.55176       -0.45886
B          3.80003        2.69017        0.15688
B         -0.45199        4.75182        0.56259
B         -3.19165        3.24802        0.35032
B         -3.21377        1.68068       -0.16706
B         -4.64411        0.73024       -0.04525
B         -0.27826       -1.65423       -1.30391
B         -1.55430       -2.48752       -0.56688
B         -3.02664       -1.74252       -0.31856
B         -4.41237       -0.90505        0.21415
B         -4.26696       -2.56170        0.59719
B         -2.83170       -3.27118        0.16834
B         -1.38352       -3.97940        0.24363
B          0.07430       -3.24240       -0.39324
B         -0.05365       -4.49985        0.66311
B          2.65862       -3.19376        0.79752
B          1.38117       -4.10363        0.81181
B          2.47346       -1.74131       -0.39384
B          3.73629       -2.13638        0.65258
B          3.68417       -0.64609        0.00654
B          1.81840       -3.42158       -0.59107
B          1.09047        2.68622       -0.57292
B         -3.25614       -0.02648       -0.65469
B          1.28421       -0.63305       -1.02358
B         -4.49669        2.36432        0.69095
B          5.13036        1.93355        0.50818
B          5.17708        0.23449        0.08057
B          5.16276       -1.31816        0.68522
B          6.36860       -0.47484        1.00366
B          6.24567        1.00703        1.06344
B         -1.68431       -0.78778       -1.00692
B          1.16882       -2.28509       -1.42004
B         -0.39809        1.88223       -0.97235
B         -5.51840        1.33093        1.14896
B         -5.69524       -0.20970        1.10781
B         -5.44705       -1.75273        1.08548
B         -0.24944        0.09524       -0.96610
