45
isomer_0979.log	Energy: -113435.9297442
B         -2.46176       -1.50858       -0.25361
B         -2.74058       -3.55868       -0.10061
B         -1.20724       -3.96136        0.27911
B          0.32476       -3.30075       -0.54029
B         -1.01231       -0.67460       -0.90868
B          1.79778       -0.77132       -0.86195
B          1.67597       -4.08253        0.16578
B         -3.95674       -0.73607       -0.41255
B          1.77679       -2.47336       -0.52149
B         -3.81536       -2.44461        0.24554
B          0.25989       -4.54561        0.45883
B          3.10701       -3.28232        0.10968
B          3.21317       -1.72181       -0.33810
B          4.61831       -0.82234        0.06487
B          0.42046        1.73348       -0.84381
B          1.84079        2.49741       -0.35707
B          3.28591        1.70938       -0.21032
B          4.73504        0.82616       -0.12899
B          4.57309        2.44212        0.60739
B          3.19931        3.25268        0.32507
B          1.80810        4.09845        0.42854
B          0.42634        3.38734       -0.28881
B          0.40812        4.70339        0.59536
B         -2.42646        3.40109        0.01223
B         -1.00688        4.15643        0.26483
B         -2.51401        1.85443       -0.55601
B         -3.87820        2.62864        0.09970
B         -3.94920        0.99832       -0.45168
B         -1.06479        2.60699       -0.53096
B         -0.95931       -2.27068       -0.18621
B          3.31993        0.03004       -0.64612
B         -1.01967        0.90492       -0.93334
B          4.49861       -2.49088        0.49631
B         -5.13341       -1.52579        0.59710
B         -5.24449        0.11931        0.17153
B         -5.18160        1.86974        0.49894
B         -6.24104        0.94185        1.15240
B         -6.23355       -0.57967        1.20907
B          1.77766        0.83532       -0.72526
B         -2.09630       -2.56609        0.94876
B          0.39398       -1.59442       -0.97663
B          5.67303       -1.61771        0.93391
B          5.88000       -0.06492        0.94689
B          5.66521        1.46461        1.01509
B         -2.53635        0.13202       -0.85445
