45
isomer_0098.log	Energy: -111919.4387757
B         -2.56090       -1.61696       -0.52855
B         -2.57632       -3.25695       -0.15734
B         -1.18242       -4.10525        0.09607
B          0.29014       -3.28772       -0.43388
B         -1.08763       -0.74115       -0.81375
B          1.78728       -0.80498       -0.86836
B          1.66334       -4.09361        0.26555
B         -4.00964       -0.72568       -0.46590
B          1.68270       -2.41119       -0.31738
B         -3.97536       -2.42068       -0.01774
B          0.22919       -4.74066        0.38604
B          3.10509       -3.26408        0.29997
B          3.15722       -1.64009       -0.25731
B          4.62115       -0.84767        0.25947
B          0.38470        1.76873       -0.93632
B          1.76866        2.44371       -0.29151
B          3.21495        1.62030       -0.23994
B          4.64981        0.77109        0.26810
B          4.50718        2.33019        0.51980
B          3.22024        3.23909        0.33463
B          1.80876        4.11945        0.30933
B          0.40803        3.37017       -0.39840
B          0.39839        4.81555        0.43697
B         -2.45778        3.43795       -0.12166
B         -1.03477        4.23362        0.14051
B         -2.50035        1.80250       -0.51033
B         -3.88557        2.65029        0.00929
B         -3.97975        0.96244       -0.45691
B         -1.05418        2.60208       -0.65317
B         -1.14390       -2.46567       -0.68018
B          3.27194       -0.10932       -0.64487
B         -1.05896        0.87817       -0.80512
B          4.42337       -2.40334        0.49457
B         -5.29056       -1.59514        0.47629
B         -5.25627        0.03690        0.25111
B         -5.22927        1.86661        0.49474
B         -6.41778        0.92957        1.07928
B         -6.44527       -0.62289        1.07100
B          1.81642        0.84076       -0.85959
B         -2.90887       -0.77897        1.84166
B          0.32362       -1.68081       -0.95470
B          5.94190       -1.72031        0.72877
B          6.16654       -0.01116        0.80501
B          5.99937        1.72201        0.81769
B         -0.78439       -1.09689        0.02706
