45
isomer_0980.log	Energy: -112421.0443345
B          2.63888        1.79690       -0.37421
B          2.57690        3.43629       -0.02600
B          1.14966        4.25350        0.18842
B         -0.29845        3.40504       -0.36999
B          1.24242        0.92196       -0.64470
B         -1.77389        0.85657       -0.82146
B         -1.69827        4.15873        0.31705
B          4.07095        0.90161       -0.29850
B         -1.69401        2.47854       -0.26542
B          3.99765        2.59922        0.14740
B         -0.28285        4.82899        0.45068
B         -3.12270        3.30007        0.34471
B         -3.15409        1.67911       -0.21004
B         -4.60290        0.85660        0.30415
B         -0.34610       -1.72491       -0.87318
B         -1.72285       -2.40976       -0.22125
B         -3.16267       -1.60739       -0.17670
B         -4.59797       -0.76957        0.31872
B         -4.44849       -2.33051        0.59330
B         -3.13148       -3.22226        0.40610
B         -1.70357       -4.07681        0.39827
B         -0.30051       -3.35372       -0.31669
B         -0.26574       -4.75547        0.53422
B          2.61293       -3.37801        0.03876
B          1.19378       -4.20244        0.27517
B          2.63306       -1.71924       -0.38087
B          4.00487       -2.51517        0.18525
B          4.07302       -0.83070       -0.28549
B          1.21004       -2.58642       -0.53155
B          1.18536        2.63424       -0.57453
B         -3.24694        0.12596       -0.59359
B          1.16138       -0.81735       -0.72936
B         -4.44660        2.43099        0.54495
B          5.29959        1.78952        0.66556
B          5.29911        0.14218        0.44423
B          5.29943       -1.67343        0.69585
B          6.43304       -0.70295        1.29837
B          6.44660        0.83040        1.28752
B         -1.78319       -0.81123       -0.80083
B          0.81752        0.54741       -1.22037
B         -0.31871        1.79706       -0.90792
B         -5.91199        1.68532        0.76766
B         -6.09739        0.00842        0.84527
B         -5.90728       -1.69279        0.86818
B          0.67248       -2.28449       -1.29714
