45
isomer_0981.log	Energy: -113476.2801618
B         -2.51215        1.64151        0.56259
B         -2.47899        3.31453       -0.06671
B         -1.10433        4.09655       -0.28476
B          0.33159        3.39086        0.35418
B         -1.14137        0.91449        1.01551
B          1.78535        0.89504        0.95270
B          1.71217        4.14678       -0.41462
B         -3.94245        0.92475        0.30874
B          1.76524        2.55122        0.44934
B         -3.81704        2.50187       -0.10594
B          0.31019        4.69628       -0.57454
B          3.07803        3.28883       -0.35318
B          3.16069        1.75187        0.23418
B          4.49414        0.78079       -0.21672
B          0.18876       -1.60137        0.50892
B          1.64366       -2.47310        0.32404
B          3.10900       -1.70937        0.39466
B          4.57415       -0.85443        0.14730
B          4.38129       -2.47153       -0.45746
B          3.01554       -3.30701       -0.07476
B          1.64031       -4.12653       -0.14802
B          0.12578       -3.31879        0.57413
B          0.28859       -4.51986       -0.56896
B         -2.49058       -3.10488       -0.43092
B         -1.13158       -3.85416       -0.50387
B         -2.58719       -1.70037        0.63309
B         -3.85875       -2.30551       -0.37943
B         -3.97649       -0.83724        0.28460
B         -1.33730       -2.73744        1.07075
B         -1.15690        2.60551        0.61759
B          3.25968        0.04262        0.67537
B         -1.28940       -0.71570        0.69676
B          4.42465        2.44216       -0.73086
B         -5.20736        1.73529       -0.51369
B         -5.27720        0.09255       -0.12151
B         -5.23939       -1.51690       -0.65140
B         -6.32569       -0.58430       -1.22517
B         -6.30829        0.89131       -1.15410
B          1.67135       -0.75597        0.76963
B         -1.11105       -2.03342       -0.52219
B          0.35407        1.86672        1.04004
B          5.55708        1.50378       -1.14672
B          5.72357       -0.03975       -1.06649
B          5.44599       -1.55988       -1.01387
B          0.25263        0.05224        1.11176
