45
isomer_0982.log	Energy: -112508.6239799
B         -2.55896        1.77035        0.39692
B         -2.52678        3.41169        0.03283
B         -1.10775        4.22620       -0.19021
B          0.33376        3.37032        0.36400
B         -1.11349        0.85717        0.70617
B          1.76054        0.84953        0.81576
B          1.73957        4.14474       -0.30557
B         -4.02780        0.91549        0.30273
B          1.70623        2.46004        0.27009
B         -3.94311        2.61090       -0.13710
B          0.32440        4.82761       -0.45042
B          3.16079        3.27990       -0.31627
B          3.16213        1.65289        0.23463
B          4.61566        0.82652       -0.25775
B          0.29379       -1.68889        0.84548
B          1.67275       -2.39536        0.22410
B          3.13965       -1.60783        0.20374
B          4.60450       -0.79241       -0.27309
B          4.42825       -2.34647       -0.53444
B          3.11596       -3.22394       -0.37787
B          1.68294       -4.06916       -0.38337
B          0.28786       -3.28825        0.30093
B          0.25851       -4.72958       -0.54094
B         -2.57294       -3.28390       -0.03059
B         -1.16525       -4.11352       -0.26920
B         -2.58254       -1.64946        0.36453
B         -3.97807       -2.46058       -0.18514
B         -4.03944       -0.77280        0.28674
B         -1.15954       -2.48519        0.53128
B         -1.12460        2.58307        0.57929
B          3.23157        0.11821        0.61743
B         -1.12466       -0.76231        0.69083
B          4.46089        2.38754       -0.48960
B         -5.26861        1.82019       -0.65976
B         -5.27894        0.18691       -0.44128
B         -5.29247       -1.64191       -0.69255
B         -6.44609       -0.67338       -1.29539
B         -6.43538        0.87924       -1.28068
B          1.74920       -0.79638        0.80017
B         -2.21422       -1.33354        1.86256
B          0.31758        1.76100        0.87815
B          5.96630        1.66805       -0.69793
B          6.15008       -0.04583       -0.77753
B          5.94043       -1.77425       -0.80116
B         -0.14272       -0.67261        0.07949
