45
isomer_0986.log	Energy: -113393.4731902
B         -2.09522        0.98493        0.55001
B         -1.97729        2.67693       -0.47129
B         -0.69574        3.41194       -0.84596
B          0.71133        3.24925        0.20045
B         -0.59310        0.78303        1.30442
B          2.31961        1.10696        1.37245
B          2.12675        3.69761       -0.87504
B         -3.81301        0.73289        0.40226
B          2.24237        2.50737        0.34779
B         -3.35206        2.15931       -0.11306
B          0.69815        3.99098       -1.22696
B          3.50599        2.91316       -0.66172
B          3.61958        1.62204        0.43449
B          4.70175        0.40142       -0.20136
B         -0.56786       -2.02558        1.25839
B          1.15524       -2.29409        0.70881
B          2.75367       -1.72630        0.51480
B          4.29698       -1.24194       -0.10774
B          3.89519       -2.85194       -0.39454
B          2.40877       -3.25861        0.09221
B          1.01993       -3.67507       -0.52602
B         -0.40767       -3.07676        0.07579
B         -0.30062       -3.96446       -1.23723
B         -2.97548       -2.46464       -0.92120
B         -1.65569       -3.26129       -1.14141
B         -2.99184       -0.88714        0.12132
B         -4.33349       -1.88430       -0.61288
B         -4.59690       -0.77825        0.48945
B         -1.90142       -2.19819        0.29767
B         -0.68679        2.14995        0.32664
B          3.37830       -0.15121        0.74204
B         -1.48426       -0.56848        0.83305
B          4.75826        1.94057       -0.93233
B         -4.89931        1.97393       -0.30704
B         -5.55706        0.46421        0.15147
B         -5.83835       -1.07041       -0.52677
B         -6.71748        0.11044       -0.98305
B         -6.26026        1.52167       -0.87963
B          1.85046       -0.59686        1.32491
B          0.93405        0.54909        2.14686
B          0.79135        1.96833        1.20710
B          5.66876        0.80658       -1.39486
B          5.57484       -0.73638       -1.21482
B          5.11918       -2.24237       -1.02973
B          0.17040       -0.76829        1.70225
