45
isomer_0987.log	Energy: -112428.7461906
B          2.60948       -1.63734        0.35079
B          2.61136       -3.26857       -0.05750
B          1.20965       -4.10502       -0.30721
B         -0.25036       -3.29347        0.26496
B          1.14507       -0.76199        0.67963
B         -1.72884       -0.81489        0.77965
B         -1.63839       -4.07753       -0.42999
B          4.06110       -0.75100        0.28464
B         -1.64059       -2.40866        0.19097
B          4.01178       -2.43526       -0.20100
B         -0.20936       -4.72775       -0.58839
B         -3.07669       -3.24136       -0.42219
B         -3.11232       -1.63018        0.17234
B         -4.58078       -0.82010       -0.30252
B         -0.31354        1.75067        0.88273
B         -1.70467        2.44590        0.27594
B         -3.15536        1.62999        0.22940
B         -4.60215        0.79855       -0.27419
B         -4.45645        2.36233       -0.49297
B         -3.16253        3.26136       -0.30837
B         -1.74679        4.13496       -0.28623
B         -0.33824        3.36396        0.38149
B         -0.33549        4.82780       -0.42112
B          2.52300        3.42587        0.05968
B          1.09959        4.23327       -0.16126
B          2.56435        1.78188        0.41064
B          3.94484        2.63535       -0.11224
B          4.03881        0.93701        0.31419
B          1.12436        2.58413        0.59503
B          1.19125       -2.48327        0.50633
B         -3.21372       -0.10809        0.59612
B          1.12370        0.85722        0.70797
B         -4.39397       -2.37087       -0.57582
B          5.32258       -1.60433       -0.69767
B          5.29944        0.02233       -0.43522
B          5.27689        1.85718       -0.63708
B          6.45146        0.92858       -1.26188
B          6.47196       -0.62377       -1.28905
B         -1.75057        0.83074        0.80845
B          1.13427       -1.73828        2.27761
B         -0.26801       -1.69862        0.82235
B         -5.91295       -1.67631       -0.76979
B         -6.13095        0.03506       -0.80380
B         -5.95605        1.76734       -0.78013
B          0.46382       -0.19483        0.02474
