45
isomer_0988.log	Energy: -112689.2591368
B          2.63124       -1.69126        0.41155
B          2.62135       -3.32864        0.02881
B          1.21380       -4.15756       -0.21306
B         -0.24163       -3.32540        0.34088
B          1.17280       -0.79907        0.72117
B         -1.70179       -0.82722        0.81122
B         -1.63346       -4.10902       -0.34693
B          4.09024       -0.81780        0.33700
B         -1.62435       -2.43067        0.24785
B          4.02899       -2.50901       -0.12244
B         -0.20920       -4.77315       -0.48979
B         -3.06494       -3.26125       -0.35760
B         -3.08963       -1.64073        0.21154
B         -4.54973       -0.82636       -0.28143
B         -0.26607        1.72814        0.87951
B         -1.64929        2.42499        0.25672
B         -3.10638        1.62017        0.21749
B         -4.55804        0.79266       -0.27847
B         -4.39886        2.35159       -0.52112
B         -3.09834        3.24294       -0.34573
B         -1.67565        4.10532       -0.33194
B         -0.27583        3.33353        0.35304
B         -0.25829        4.78456       -0.47234
B          2.58696        3.36731        0.04103
B          1.17097        4.18261       -0.19784
B          2.61368        1.72873        0.41779
B          4.00295        2.56274       -0.11318
B          4.08157        0.87059        0.34009
B          1.17959        2.54536        0.58421
B          1.20563       -2.52317        0.57496
B         -3.18019       -0.11142        0.61110
B          1.16449        0.82049        0.72413
B         -4.37454       -2.38268       -0.52976
B          5.34830       -1.69655       -0.62711
B          5.33742       -0.06585       -0.39021
B          5.33052        1.76573       -0.62079
B          6.49977        0.81802       -1.22659
B          6.50774       -0.73468       -1.22943
B         -1.71024        0.81878        0.81422
B          0.29231       -0.12481        1.99847
B         -0.24835       -1.72193        0.87321
B         -5.88711       -1.67901       -0.74025
B         -6.09107        0.03332       -0.80182
B         -5.90219        1.76430       -0.80457
B         -0.28512       -0.12464       -0.75359
