45
isomer_0989.log	Energy: -111952.9551251
B          2.57381        1.75287       -0.42650
B          2.54665        3.38992       -0.04321
B          1.13051        4.20343        0.20083
B         -0.31654        3.35569       -0.35143
B          1.12473        0.84500       -0.73446
B         -1.75011        0.84195       -0.82063
B         -1.71587        4.12393        0.33852
B          4.04231        0.89528       -0.35421
B         -1.68933        2.44597       -0.25684
B          3.96332        2.58558        0.10587
B         -0.29871        4.80344        0.47968
B         -3.13804        3.26066        0.35083
B         -3.14590        1.64014       -0.21881
B         -4.59640        0.80981        0.27585
B         -0.28682       -1.69765       -0.89169
B         -1.66155       -2.40967       -0.26727
B         -3.12724       -1.62074       -0.22582
B         -4.58714       -0.80920        0.27237
B         -4.41070       -2.36639        0.51428
B         -3.10082       -3.24350        0.33685
B         -1.66887       -4.09038        0.32086
B         -0.27844       -3.30321       -0.36574
B         -0.24402       -4.75422        0.45913
B          2.58497       -3.30600       -0.05760
B          1.17823       -4.13671        0.18290
B          2.59338       -1.66711       -0.43385
B          3.99234       -2.48615        0.09497
B          4.05197       -0.79310       -0.35784
B          1.16803       -2.49921       -0.59862
B          1.13903        2.56930       -0.58772
B         -3.22039        0.11008       -0.61876
B          1.13400       -0.77457       -0.73794
B         -4.43779        2.36786        0.52446
B          5.29205        1.78734        0.60850
B          5.29857        0.15669        0.37107
B          5.31186       -1.67493        0.60106
B          6.47157       -0.71477        1.20560
B          6.46268        0.83793        1.20894
B         -1.74069       -0.80405       -0.82417
B          1.64821       -1.68027       -0.04847
B         -0.30656        1.75241       -0.88428
B         -5.94234        1.64774        0.73676
B         -6.12761       -0.06672        0.79803
B         -5.91994       -1.79555        0.79995
B          0.00361        0.51105       -0.68144
