45
isomer_0099.log	Energy: -113446.2978761
B          2.68937       -1.56090        0.84111
B          2.70147       -3.17102        0.30963
B          1.48029       -3.84602       -0.38461
B          0.01365       -3.07686        0.20933
B          1.21852       -0.72638        0.51693
B         -1.74687       -0.89418        0.97842
B         -1.38780       -3.80685       -0.68796
B          4.02225       -0.63388        0.47167
B         -1.59771       -2.44867        0.28824
B          4.05411       -2.25279        0.09391
B          0.11354       -4.14698       -1.00132
B         -2.83732       -3.27337       -0.43130
B         -3.10654       -1.77521        0.34465
B         -4.47452       -0.95321       -0.14787
B         -0.38001        1.74985        0.92593
B         -1.88334        2.46293        0.49135
B         -3.29263        1.60440        0.34759
B         -4.73132        0.66623        0.20060
B         -4.59334        2.32702       -0.45008
B         -3.28827        3.19379       -0.17208
B         -1.89091        3.99328       -0.33176
B         -0.47464        3.38997        0.43516
B         -0.47518        4.52387       -0.67605
B          2.36603        3.36076       -0.25066
B          0.99286        4.07730       -0.41530
B          2.51787        1.73439        0.44901
B          3.76850        2.51944       -0.37709
B          3.95992        1.05021        0.39691
B          1.07309        2.57921        0.35168
B          1.42466       -2.12515       -0.45529
B         -3.34535       -0.11651        0.78600
B          1.08164        0.91538        0.72560
B         -4.31752       -2.55953       -0.68364
B          5.23500       -1.44189       -0.50996
B          5.29785        0.24036       -0.21096
B          5.16680        1.88035       -0.66871
B          6.34055        0.99521       -1.19939
B          6.32420       -0.49132       -1.20342
B         -1.83749        0.80029        0.81160
B          1.31316       -2.44631        1.27729
B         -0.20567       -1.68673        1.11711
B         -5.52138       -1.75601       -1.05695
B         -5.80883       -0.20379       -0.95709
B         -5.64801        1.31393       -0.94315
B         -0.31070        0.01538        0.84492
