45
isomer_0990.log	Energy: -110753.5489980
B         -2.61463       -1.63945       -0.39415
B         -2.61079       -3.27577       -0.00680
B         -1.20631       -4.10931        0.23698
B          0.25208       -3.28421       -0.31973
B         -1.15294       -0.75365       -0.70672
B          1.72150       -0.79289       -0.79754
B          1.64116       -4.07113        0.36987
B         -4.07031       -0.76030       -0.32163
B          1.63819       -2.39444       -0.22964
B         -4.01529       -2.45042        0.14256
B          0.21445       -4.72948        0.51502
B          3.07582       -3.22874        0.37772
B          3.10645       -1.60993       -0.19599
B          4.56976       -0.79969        0.29424
B          0.29540        1.76767       -0.87260
B          1.68142        2.46104       -0.25219
B          3.13549        1.65086       -0.21113
B          4.58417        0.81927        0.28673
B          4.43094        2.37947        0.52503
B          3.13374        3.27522        0.34752
B          1.71431        4.14291        0.33172
B          0.31138        3.37448       -0.35066
B          0.29956        4.82788        0.47063
B         -2.55117        3.41994       -0.03790
B         -1.13204        4.23056        0.19825
B         -2.58418        1.78042       -0.41003
B         -3.97013        2.62115        0.11900
B         -4.05527        0.92803       -0.32947
B         -1.14708        2.59116       -0.57918
B         -1.19222       -2.47720       -0.55564
B          3.20265       -0.08211       -0.59988
B         -1.13852        0.86586       -0.71424
B          4.38878       -2.35463        0.54702
B         -5.33137       -1.63158        0.64533
B         -5.31442       -0.00160        0.40383
B         -5.30054        1.83058        0.62925
B         -6.47317        0.88900        1.23807
B         -6.48699       -0.66365        1.24528
B          1.73615        0.85306       -0.80519
B         -0.54578        0.29732       -1.27118
B          0.26468       -1.68228       -0.85658
B          5.90406       -1.65608        0.75507
B          6.11449        0.05564        0.81176
B          5.93213        1.78732        0.80969
B         -0.45559       -2.40028       -0.48244
