45
isomer_0991.log	Energy: -113434.5258530
B         -2.44996        1.81512        0.47167
B         -2.43996        3.46315       -0.01007
B         -1.06700        4.22357       -0.21617
B          0.35098        3.42150        0.32177
B         -1.17181        0.95279        1.01793
B          1.76382        0.91875        0.87309
B          1.74188        4.12678       -0.48826
B         -3.78303        0.98728        0.15681
B          1.79173        2.55627        0.30959
B         -3.77584        2.63147       -0.11715
B          0.33860        4.75584       -0.56112
B          3.09478        3.25459       -0.46842
B          3.14636        1.69204        0.12858
B          4.52180        0.75778       -0.19873
B          0.30546       -1.66471        1.29461
B          1.60651       -2.47660        0.58789
B          3.06725       -1.69478        0.34123
B          4.54179       -0.89812        0.09107
B          4.31781       -2.53287       -0.48305
B          2.91835       -3.28393       -0.06370
B          1.49542       -3.97728       -0.21475
B         -0.02416       -3.22744        0.40286
B          0.16249       -4.42594       -0.70913
B         -2.61625       -3.23326       -0.88323
B         -1.25327       -4.00358       -0.92893
B         -2.46153       -1.72715        0.45925
B         -3.74594       -2.24319       -0.59680
B         -3.74834       -0.76000        0.06847
B         -1.78599       -3.32213        0.46571
B         -1.10854        2.68099        0.74927
B          3.26423        0.02177        0.67896
B         -1.28078       -0.63462        1.07836
B          4.42855        2.36647       -0.84441
B         -5.13829        1.80732       -0.49898
B         -5.13226        0.14941       -0.16186
B         -5.14058       -1.43947       -0.74908
B         -6.26962       -0.53709       -1.18672
B         -6.26078        0.94283       -1.08459
B          1.66215       -0.76953        0.89648
B          0.25651        0.10103        0.95814
B          0.37212        1.90983        1.05232
B          5.52983        1.40187       -1.25098
B          5.68658       -0.14695       -1.11479
B          5.43382       -1.66575       -1.01482
B         -1.14487       -2.27403        1.44168
