45
isomer_0992.log	Energy: -113353.1384258
B         -2.49854        1.70642        0.59740
B         -2.49295        3.36639       -0.01048
B         -1.12655        4.09355       -0.29975
B          0.32799        3.39610        0.29491
B         -1.03349        0.99669        1.03352
B          1.80008        0.95588        0.98826
B          1.67608        4.05553       -0.54700
B         -3.88559        0.97121        0.35409
B          1.79392        2.56628        0.38163
B         -3.80002        2.57508       -0.04372
B          0.26099        4.63965       -0.69092
B          3.09579        3.26144       -0.44698
B          3.18409        1.75629        0.19857
B          4.53775        0.80933       -0.21623
B          0.29183       -1.35962        0.63297
B          1.70146       -2.34050        0.55953
B          3.17036       -1.63154        0.47890
B          4.63823       -0.80429        0.25005
B          4.42466       -2.42904       -0.34357
B          3.01161       -3.21715       -0.00724
B          1.61469       -3.97529       -0.11767
B          0.10908       -3.08682        0.34564
B          0.31887       -4.43367       -0.64610
B         -2.40296       -2.93435       -0.90258
B         -1.09633       -3.84096       -0.86531
B         -2.48706       -1.67667        0.43528
B         -3.77831       -2.17084       -0.63251
B         -3.80406       -0.68478        0.09906
B         -1.67035       -3.33805        0.64562
B         -1.10908        2.59216        0.69491
B          3.29839        0.11800        0.72335
B         -1.20438       -0.58036        0.93740
B          4.48009        2.45925       -0.73915
B         -5.24085        1.77922       -0.32926
B         -5.26856        0.12016        0.04233
B         -5.14817       -1.41953       -0.72615
B         -6.27275       -0.44348       -1.15337
B         -6.39115        0.99504       -0.88089
B          1.75262       -0.63714        0.78892
B         -1.09382       -2.13830        1.48109
B          0.38337        1.83188        1.06304
B          5.65010        1.53223       -1.09920
B          5.80624       -0.00965       -0.99166
B          5.48213       -1.51861       -0.93009
B         -1.00540       -1.90715       -0.40664
