45
isomer_0994.log	Energy: -113301.6461729
B         -2.56674        1.80279        0.49473
B         -2.55809        3.51865        0.17969
B         -1.17384        4.30960        0.01913
B          0.32750        3.45003        0.36677
B         -1.20755        0.95745        0.65291
B          1.63402        0.83955        0.48187
B          1.68531        4.22657       -0.30638
B         -3.88401        0.86100        0.39572
B          1.67655        2.50113        0.11475
B         -3.92674        2.59270        0.07355
B          0.28412        4.88537       -0.28031
B          3.08042        3.32636       -0.30413
B          3.10791        1.73152        0.13822
B          4.53544        0.83322       -0.08316
B          0.23717       -1.74941        0.76060
B          1.72873       -2.53179        0.32074
B          3.11627       -1.70581        0.28110
B          4.51266       -0.83182       -0.03847
B          4.49726       -2.48111       -0.48398
B          3.06434       -3.31167       -0.17473
B          1.66384       -4.18210       -0.17297
B          0.26440       -3.42004        0.51395
B          0.25195       -4.81589       -0.23781
B         -2.63406       -3.47781        0.07192
B         -1.19652       -4.32301       -0.00970
B         -2.55341       -1.77685        0.16705
B         -3.96380       -2.54915       -0.18935
B         -3.87393       -0.84199        0.32326
B         -1.26864       -2.75283        0.58683
B         -1.20849        2.70938        0.63565
B          3.19135        0.00704        0.51389
B         -1.85204       -0.35194        0.42024
B          4.48723        2.51803       -0.51289
B         -5.10843        1.76348       -0.54658
B         -5.05451        0.05115       -0.44457
B         -5.12063       -1.64834       -0.69862
B         -6.25115       -0.65917       -1.23078
B         -6.23310        0.83884       -1.18195
B          1.63120       -0.78722        0.70557
B         -0.86906       -1.34375       -0.32538
B          0.24126        1.79888        0.68575
B          5.67284        1.57452       -0.87943
B          5.83530        0.01476       -0.87278
B          5.62746       -1.56913       -0.89710
B          0.15021       -0.00117        0.96718
