45
isomer_0995.log	Energy: -113675.8862050
B         -2.56347       -1.73027       -0.53102
B         -2.51419       -3.30366        0.03627
B         -1.15763       -4.14917        0.10817
B          0.26833       -3.40298       -0.53907
B         -1.17032       -0.85096       -1.06926
B          1.71732       -0.84369       -0.78792
B          1.64107       -4.16966        0.25885
B         -3.98404       -0.84480       -0.22460
B          1.72378       -2.55141       -0.43009
B         -3.86970       -2.48466        0.27560
B          0.21882       -4.74780        0.35307
B          3.00769       -3.34067        0.27906
B          3.12836       -1.73337       -0.22053
B          4.54688       -0.89488        0.14502
B          0.36957        1.82502       -1.11728
B          1.80242        2.53242       -0.48858
B          3.17342        1.67981       -0.26003
B          4.53205        0.79707        0.23829
B          4.40715        2.44386        0.74944
B          3.09229        3.28000        0.26647
B          1.74875        4.14418        0.24574
B          0.35155        3.38471       -0.51486
B          0.34246        4.74608        0.35109
B         -2.42691        3.33516        0.03982
B         -1.04690        4.15760        0.12242
B         -2.50864        1.76013       -0.48818
B         -3.80915        2.53766        0.29327
B         -3.95597        0.91105       -0.21481
B         -1.11880        2.58998       -0.76505
B         -1.18630       -2.57754       -0.78970
B          3.29345       -0.01639       -0.60918
B         -1.12965        0.84855       -1.04220
B          4.32561       -2.49997        0.77085
B         -5.10440       -1.65128        0.84541
B         -5.19505        0.04486        0.52361
B         -5.06001        1.73927        0.86531
B         -6.08388        0.81444        1.61350
B         -6.10456       -0.70632        1.60603
B          1.78680        0.83021       -0.91148
B         -2.60973        0.01667       -0.74591
B          0.31256       -1.83051       -1.08734
B          5.37252       -1.57007        1.33861
B          5.62002       -0.03402        1.30474
B          5.47358        1.51801        1.30140
B          0.34286       -0.00267       -1.09492
