45
isomer_0996.log	Energy: -113433.2254959
B         -2.35555       -2.07962       -0.83563
B         -1.87604       -3.23388        0.42924
B         -0.47835       -4.04403        0.35156
B          0.74759       -3.25769       -0.47140
B         -0.95948       -0.88467       -1.02579
B          1.87976       -0.66104       -1.12650
B          2.27805       -3.85456        0.18341
B         -3.24097       -0.78524       -0.28724
B          2.12523       -2.30381       -0.66254
B         -3.00804       -2.32336        0.93164
B          0.94614       -4.55752        0.45056
B          3.52651       -2.87910        0.09284
B          3.41760       -1.32848       -0.44849
B          4.55760       -0.24651        0.15043
B         -0.02403        1.35688       -0.57889
B          1.26793        2.47947       -0.30977
B          2.82450        2.02750       -0.25486
B          4.41452        1.40503       -0.09973
B          3.94998        2.91734        0.64178
B          2.43607        3.48818        0.38777
B          0.93791        4.06985        0.44199
B         -0.30799        2.95463        0.04348
B         -0.53672        4.45853        0.50295
B         -3.01478        2.85865       -0.39081
B         -1.83621        3.69387        0.10855
B         -2.80749        1.07155       -1.02204
B         -4.25004        2.00834       -0.57751
B         -4.31065        0.41889       -0.94800
B         -1.65115        1.87540        0.05775
B         -0.77529       -2.54998       -0.71574
B          3.21149        0.36328       -0.70226
B         -1.26641        0.68276       -1.41561
B          4.80489       -1.90836        0.45519
B         -4.25401       -1.55278        1.44179
B         -4.85564       -0.43895        0.35216
B         -5.50594        1.10414       -0.08879
B         -6.09617        0.34685        1.12684
B         -5.49079       -0.81534        1.83085
B          1.54736        0.88163       -0.76446
B         -1.71596       -1.32024        0.63149
B          0.62373       -1.67243       -1.14219
B          5.81655       -0.86151        0.90965
B          5.71938        0.69958        0.98012
B          5.19333        2.14971        1.08168
B         -1.60844        0.24704        0.28454
