45
isomer_0997.log	Energy: -113469.5003581
B          2.59157       -1.46890        0.49686
B          2.65706       -3.16809        0.17512
B          1.32019       -3.92515       -0.16779
B         -0.06043       -2.90797       -0.35446
B          1.23364       -0.70059        0.77843
B         -1.68881       -0.84630        1.02614
B         -1.44352       -4.04583       -0.53609
B          4.02022       -0.70280        0.30172
B         -1.57362       -2.47623        0.30946
B          4.00330       -2.30070        0.01732
B         -0.06080       -4.56797       -0.54036
B         -2.84512       -3.28426       -0.38108
B         -3.02032       -1.76554        0.28266
B         -4.40930       -0.90729       -0.20359
B         -0.38812        1.81397        0.92560
B         -1.84871        2.50309        0.54052
B         -3.24595        1.66556        0.34354
B         -4.65948        0.70005        0.16138
B         -4.52925        2.35940       -0.51602
B         -3.21412        3.22834       -0.22601
B         -1.86224        4.09138       -0.36144
B         -0.43681        3.38078        0.33427
B         -0.47778        4.66505       -0.60777
B          2.36336        3.37349       -0.25306
B          0.98030        4.12029       -0.36696
B          2.48674        1.73723        0.56039
B          3.69527        2.56422       -0.33050
B          3.90115        1.04496        0.23369
B          1.06233        2.54919        0.35899
B          1.28467       -2.58622        1.14541
B         -3.26275       -0.07409        0.69868
B          1.13098        0.94723        0.99509
B         -4.31714       -2.55222       -0.62676
B          5.32530       -1.44639       -0.45718
B          5.27446        0.22986       -0.15752
B          5.12554        1.82914       -0.68711
B          6.27388        0.97087       -1.23827
B          6.36745       -0.51477       -1.13299
B         -1.78089        0.82547        0.83660
B          1.31436       -2.05019       -0.53638
B         -0.15181       -1.76340        0.98411
B         -5.51126       -1.73220       -1.01741
B         -5.76355       -0.17061       -0.97998
B         -5.58291        1.34929       -0.98204
B         -0.27709        0.00885        1.15477
