45
isomer_0998.log	Energy: -113675.8328472
B         -2.52724        1.75129        0.50093
B         -2.45431        3.32156       -0.04359
B         -1.08060        4.15336       -0.12507
B          0.32379        3.39146        0.52029
B         -1.14376        0.84852        1.05706
B          1.76016        0.83429        0.87562
B          1.71330        4.15024       -0.25598
B         -3.96571        0.88832        0.21839
B          1.77838        2.53855        0.47251
B         -3.83065        2.51987       -0.28697
B          0.30306        4.74587       -0.35851
B          3.06374        3.29616       -0.27350
B          3.15960        1.69611        0.24920
B          4.53942        0.82953       -0.20500
B          0.32894       -1.83248        1.09946
B          1.75079       -2.54437        0.45318
B          3.14498       -1.71573        0.23784
B          4.54423       -0.86297       -0.17323
B          4.35488       -2.47968       -0.76402
B          3.03462       -3.31737       -0.27601
B          1.67586       -4.15895       -0.26003
B          0.29448       -3.39748        0.52660
B          0.26014       -4.74666       -0.36008
B         -2.48466       -3.31080       -0.04272
B         -1.11924       -4.15042       -0.12107
B         -2.54604       -1.74095        0.51433
B         -3.85186       -2.50175       -0.28111
B         -3.97539       -0.86545        0.22147
B         -1.16416       -2.58147        0.78229
B         -1.14057        2.58612        0.77308
B          3.29546       -0.00547        0.60883
B         -1.15734       -0.84816        1.06367
B          4.38278        2.46015       -0.75832
B         -5.07746        1.71079       -0.85685
B         -5.19773        0.01557       -0.52080
B         -5.09323       -1.68033       -0.84983
B         -6.09971       -0.74201       -1.60654
B         -6.09257        0.77959       -1.60898
B          1.73645       -0.83940        0.83604
B         -2.60997        0.00524        0.74393
B          0.34940        1.83030        1.10910
B          5.44463        1.53614       -1.31407
B          5.62117       -0.01205       -1.30321
B          5.40932       -1.55453       -1.32699
B          0.34264       -0.00053        1.10866
