45
isomer_0999.log	Energy: -113663.0822451
B          2.51939        1.74977       -0.44899
B          2.48231        3.33490        0.05121
B          1.08490        4.14612        0.16592
B         -0.32733        3.38800       -0.48119
B          1.14179        0.88726       -0.94949
B         -1.77489        0.84896       -0.89461
B         -1.71800        4.13110        0.29996
B          3.95331        0.88717       -0.22091
B         -1.77993        2.52476       -0.44498
B          3.86874        2.52164        0.26685
B         -0.30425        4.72176        0.42220
B         -3.07275        3.29489        0.28945
B         -3.17624        1.70936       -0.25735
B         -4.55577        0.82854        0.15418
B         -0.33298       -1.82121       -1.08074
B         -1.75831       -2.53016       -0.43418
B         -3.16345       -1.71725       -0.25393
B         -4.56325       -0.85668        0.12844
B         -4.39554       -2.47756        0.71182
B         -3.05519       -3.31289        0.27033
B         -1.69317       -4.15104        0.27457
B         -0.30295       -3.38928       -0.48646
B         -0.27404       -4.74022        0.38822
B          2.50383       -3.33234        0.03759
B          1.11476       -4.15176        0.15034
B          2.53628       -1.72538       -0.39007
B          3.87833       -2.50349        0.28181
B          3.97130       -0.84349       -0.20561
B          1.16487       -2.59084       -0.70864
B          1.14464        2.60796       -0.74377
B         -3.30830       -0.00236       -0.63595
B          1.12686       -0.85923       -0.89438
B         -4.41903        2.45744        0.72203
B          5.14418        1.70818        0.77704
B          5.19847        0.01365        0.50692
B          5.16775       -1.70795        0.74372
B          6.25914       -0.76076        1.40746
B          6.24271        0.76733        1.43114
B         -1.75434       -0.83606       -0.85554
B          2.57816       -0.02297       -0.77730
B         -0.35544        1.83606       -1.12896
B         -5.49690        1.53172        1.24022
B         -5.67909       -0.01462        1.22162
B         -5.47605       -1.55818        1.23770
B         -0.34453        0.00917       -0.88770
