20
-1552.217633
Au       1.90024748       0.15274427      -0.00000000 
Au      -1.90024748      -0.15274427      -0.00000000 
Au       0.22414417       2.25283085      -0.00000000 
Au      -0.22414418      -2.25283085      -0.00000000 
Au      -4.37207638       0.75255810       0.00000000 
Au       4.37207639      -0.75255810       0.00000000 
Au       0.97350033      -4.57955009       0.00000000 
Au      -0.97350033       4.57955009       0.00000000 
Au       2.82358454       2.59882581      -0.00000000 
Au      -2.82358454      -2.59882581      -0.00000000 
Au      -2.38097073       2.40617635       0.00000000 
Au       2.38097073      -2.40617635       0.00000000 
Au      -1.62257239      -1.59650174      -2.16462943 
Au       1.62257239       1.59650174      -2.16462943 
Au       0.93856853      -1.00863905      -2.16620639 
Au      -0.93856853       1.00863905      -2.16620639 
Au       0.93856853      -1.00863905       2.16620639 
Au      -0.93856853       1.00863905       2.16620639 
Au      -1.62257239      -1.59650174       2.16462943 
Au       1.62257239       1.59650174       2.16462943 
