20
-1548.519202
Au       3.50710793      -0.00000000       0.00000000 
Au      -3.50710793      -0.00000000       0.00000000 
Au      -0.00000000       3.50710791       0.00000000 
Au      -0.00000000      -3.50710791      -0.00000000 
Au       6.06966994      -0.00000000       0.00000000 
Au      -6.06966994      -0.00000000       0.00000000 
Au       0.00000000       6.06966994      -0.00000000 
Au       0.00000000      -6.06966994       0.00000000 
Au      -1.28419884      -1.28419885      -0.00000000 
Au       1.28419884       1.28419885      -0.00000000 
Au       1.28419884      -1.28419885      -0.00000000 
Au      -1.28419884       1.28419885       0.00000000 
Au       2.28547195      -4.69539934       0.00000000 
Au      -2.28547195       4.69539934      -0.00000000 
Au       4.69539934       2.28547195      -0.00000000 
Au      -4.69539934      -2.28547195      -0.00000000 
Au      -2.28547195      -4.69539934       0.00000000 
Au       2.28547195       4.69539934      -0.00000000 
Au      -4.69539934       2.28547195       0.00000000 
Au       4.69539934      -2.28547195      -0.00000000 
