20
-1551.619445
Au      -7.23015984       0.00000007      -0.00000000 
Au       7.23015984      -0.00000007       0.00000000 
Au       0.00000475      -6.74448622       0.00000000 
Au      -0.00000476       6.74448622      -0.00000000 
Au      -1.30990152      -0.00000116      -0.00000000 
Au       1.30990152       0.00000116      -0.00000000 
Au       0.00000185      -2.22239373       0.00000000 
Au      -0.00000185       2.22239373       0.00000000 
Au      -2.59735042      -2.26797709       0.00000000 
Au       2.59735042       2.26797709       0.00000000 
Au       2.59735358      -2.26797358       0.00000000 
Au      -2.59735358       2.26797358       0.00000000 
Au      -4.98986912      -1.30549569      -0.00000000 
Au       4.98986913       1.30549569       0.00000000 
Au       1.30293277      -4.50181237       0.00000000 
Au      -1.30293277       4.50181237       0.00000000 
Au       4.98988144      -1.30551607      -0.00000000 
Au      -4.98988144       1.30551607       0.00000000 
Au      -1.30292665      -4.50181415      -0.00000000 
Au       1.30292665       4.50181415       0.00000000 
