20
-1550.422336
Au      -3.54768905       0.00000000      -0.00000000 
Au       3.54768905       0.00000000       0.00000000 
Au       0.00000000      -3.54768905      -0.00000000 
Au      -0.00000000       3.54768905       0.00000000 
Au      -1.27698385      -1.27698385      -0.00000000 
Au       1.27698385       1.27698385      -0.00000000 
Au       1.27698385      -1.27698385       0.00000000 
Au      -1.27698385       1.27698385       0.00000000 
Au      -3.09993149      -3.09993149      -0.00000000 
Au       3.09993149       3.09993149       0.00000000 
Au       3.09993149      -3.09993149       0.00000000 
Au      -3.09993149       3.09993149       0.00000000 
Au       5.37417365      -1.85327143      -0.00000000 
Au      -5.37417365       1.85327143      -0.00000000 
Au       1.85327142       5.37417365      -0.00000000 
Au      -1.85327142      -5.37417365       0.00000000 
Au      -5.37417365      -1.85327143       0.00000000 
Au       5.37417365       1.85327143      -0.00000000 
Au      -1.85327142       5.37417365      -0.00000000 
Au       1.85327142      -5.37417365      -0.00000000 
