20
-1549.506412
Au       3.18562264       0.02380928       0.00000000 
Au      -3.18562264      -0.02380928      -0.00000000 
Au       0.02401463       3.19231553       0.00000000 
Au      -0.02401466      -3.19231553      -0.00000000 
Au       4.36008389       4.35557738      -0.00000000 
Au      -4.36008389      -4.35557738      -0.00000000 
Au      -4.27503831       4.26996146      -0.00000000 
Au       4.27503830      -4.26996146      -0.00000000 
Au       2.50145083       2.50235808      -0.00000000 
Au      -2.50145082      -2.50235809       0.00000000 
Au      -2.44614526       2.44720994       0.00000000 
Au       2.44614527      -2.44720993      -0.00000000 
Au      -5.04003578       1.79797927      -0.00000000 
Au       5.04003578      -1.79797927       0.00000000 
Au      -1.86604345      -5.03772899      -0.00000000 
Au       1.86604345       5.03772900       0.00000000 
Au       5.03600762       1.85958538      -0.00000000 
Au      -5.03600763      -1.85958538       0.00000000 
Au       1.80476679      -5.04078719       0.00000000 
Au      -1.80476679       5.04078719       0.00000000 
