20
-1550.116729
Au       3.55002345      -0.00000000       0.00000000 
Au      -3.55002345      -0.00000000       0.00000000 
Au      -0.00000000       3.55002345      -0.00000000 
Au       0.00000000      -3.55002345      -0.00000000 
Au      -4.95650907      -4.95650907       0.00000000 
Au       4.95650907       4.95650907       0.00000000 
Au       4.95650907      -4.95650907       0.00000000 
Au      -4.95650907       4.95650907       0.00000000 
Au       1.30583711       1.30583711      -0.00000000 
Au      -1.30583711      -1.30583711      -0.00000000 
Au      -1.30583711       1.30583711       0.00000000 
Au       1.30583711      -1.30583711       0.00000000 
Au      -4.28260246      -2.45309210      -0.00000000 
Au       4.28260246       2.45309210      -0.00000000 
Au       2.45309210      -4.28260246      -0.00000000 
Au      -2.45309210       4.28260246      -0.00000000 
Au       4.28260246      -2.45309210       0.00000000 
Au      -4.28260246       2.45309210       0.00000000 
Au      -2.45309210      -4.28260246       0.00000000 
Au       2.45309210       4.28260246       0.00000000 
