20
-1554.756643
Au       2.78985905       0.47516940      -0.07306173 
Au      -2.78985905      -0.47516941      -0.07306172 
Au       0.37845280       1.34106060       0.48546847 
Au      -0.37845279      -1.34106057       0.48546847 
Au      -4.64300592       1.36731822      -0.23051073 
Au       4.64300591      -1.36731822      -0.23051077 
Au       0.34737495      -3.35574732      -1.05546347 
Au      -0.34737486       3.35574729      -1.05546346 
Au      -2.12440132      -3.23662373      -0.07574314 
Au       2.12440118       3.23662364      -0.07574343 
Au       2.18709251      -2.10737384       0.37002626 
Au      -2.18709252       2.10737382       0.37002631 
Au      -1.42773104      -1.68791216      -2.04298003 
Au       1.42773111       1.68791254      -2.04297983 
Au       1.06618441      -0.87692463      -1.73472866 
Au      -1.06618449       0.87692444      -1.73472867 
Au       2.53170286       1.90360555       2.11633968 
Au      -2.53170284      -1.90360566       2.11633956 
Au      -1.34886184       0.41166314       2.24065347 
Au       1.34886189      -0.41166311       2.24065346 
