20
-1555.687918
Au      -0.95609080       0.83794786       0.09107918 
Au       0.93853621      -0.99835635      -0.01518582 
Au      -1.90726031      -1.80922700       0.02962987 
Au       1.92938670       1.78200834      -0.04296806 
Au      -0.98655323      -0.81701085      -2.21494633 
Au       0.98174789       0.92180733      -2.31232665 
Au       1.50168088      -1.65149953      -2.64212861 
Au      -1.53733096       1.78851820      -2.35368937 
Au       0.92433336       0.91073736       2.21679865 
Au      -0.93858764      -0.93552907       2.28661802 
Au       1.59108404      -1.64784214       2.59586752 
Au      -1.61863271       1.64357653       2.52836037 
Au       3.20732323      -0.10854877       1.29623229 
Au      -3.29878843      -0.02635407       1.44359032 
Au      -0.04833293       3.14381352       1.10625453 
Au       0.01604168      -3.22494103       1.25445192 
Au      -3.20999392       0.21009799      -1.15127012 
Au       3.20040607      -0.20621278      -1.30503080 
Au       0.32820377       3.37756313      -1.46604843 
Au      -0.11717289      -3.19054866      -1.34528847 
