20
-1555.23919
Au       2.81988970       0.00000000       0.00000000 
Au      -2.81988970       0.00000000       0.00000000 
Au       0.00000000       2.81988970      -0.00000000 
Au       0.00000000      -2.81988970      -0.00000000 
Au      -1.87549286       0.00000000       2.49165600 
Au       1.87549286      -0.00000000       2.49165600 
Au       0.00000000      -1.87549286       2.49165600 
Au      -0.00000000       1.87549286       2.49165600 
Au       1.87549286      -0.00000000      -2.49165600 
Au      -1.87549286       0.00000000      -2.49165600 
Au       0.00000000      -1.87549286      -2.49165600 
Au      -0.00000000       1.87549286      -2.49165600 
Au       2.29177531       2.29177531       1.30096239 
Au      -2.29177531      -2.29177531       1.30096239 
Au      -2.29177531       2.29177531       1.30096239 
Au       2.29177531      -2.29177531       1.30096239 
Au      -2.29177531       2.29177531      -1.30096239 
Au       2.29177531      -2.29177531      -1.30096239 
Au       2.29177531       2.29177531      -1.30096239 
Au      -2.29177531      -2.29177531      -1.30096239 
