20
-1555.239197
Au       2.82049815      -0.00000055      -0.00000000 
Au      -2.82049815       0.00000055       0.00000000 
Au      -0.00000055       2.82049865       0.00000000 
Au       0.00000055      -2.82049865      -0.00000000 
Au       1.87522719       0.00002069      -2.49110948 
Au      -1.87522719      -0.00002069      -2.49110948 
Au       0.00002069       1.87522984      -2.49111006 
Au      -0.00002069      -1.87522984      -2.49111006 
Au      -1.87522719      -0.00002069       2.49110948 
Au       1.87522719       0.00002069       2.49110948 
Au       0.00002069       1.87522984       2.49111006 
Au      -0.00002069      -1.87522984       2.49111006 
Au      -2.29190932      -2.29190933      -1.30076911 
Au       2.29190932       2.29190933      -1.30076911 
Au       2.29192721      -2.29192722      -1.30072995 
Au      -2.29192721       2.29192721      -1.30072994 
Au       2.29192721      -2.29192721       1.30072994 
Au      -2.29192721       2.29192722       1.30072995 
Au      -2.29190932      -2.29190933       1.30076911 
Au       2.29190932       2.29190933       1.30076911 
