20
-1555.19279
Au       2.72609496       0.03037687       0.00000000 
Au      -2.72609494      -0.03037689      -0.00000000 
Au       0.03040963       2.73104102       0.00000000 
Au      -0.03040966      -2.73104101      -0.00000000 
Au      -1.86774010      -0.00712320      -2.51487101 
Au       1.86774010       0.00712320      -2.51487101 
Au      -0.00715596      -1.88368847      -2.51787313 
Au       0.00715596       1.88368847      -2.51787313 
Au       1.86774010       0.00712320       2.51487101 
Au      -1.86774010      -0.00712320       2.51487101 
Au      -0.00715596      -1.88368847       2.51787313 
Au       0.00715596       1.88368847       2.51787313 
Au       2.29993393       2.30016739       1.31033384 
Au      -2.29993393      -2.30016739       1.31033384 
Au      -2.27435789       2.27445662       1.30092211 
Au       2.27435789      -2.27445662       1.30092211 
Au      -2.27435789       2.27445662      -1.30092211 
Au       2.27435789      -2.27445662      -1.30092211 
Au       2.29993393       2.30016739      -1.31033384 
Au      -2.29993393      -2.30016739      -1.31033384 
