20
-1547.451362
Au       1.85764852       0.00000041       0.00000000 
Au      -1.85764852      -0.00000041       0.00000000 
Au       0.00000041       1.85764850      -0.00000000 
Au      -0.00000041      -1.85764850       0.00000000 
Au      -2.19406703      -2.19406703      -1.32615613 
Au       2.19406703       2.19406703      -1.32615613 
Au       2.19406730      -2.19406730      -1.32615635 
Au      -2.19406730       2.19406730      -1.32615635 
Au       2.19406730      -2.19406730       1.32615635 
Au      -2.19406730       2.19406730       1.32615635 
Au      -2.19406703      -2.19406703       1.32615613 
Au       2.19406703       2.19406703       1.32615613 
Au      -4.01038162      -4.01038162      -1.30285642 
Au       4.01038162       4.01038162      -1.30285642 
Au       4.01038154      -4.01038154      -1.30285642 
Au      -4.01038154       4.01038154      -1.30285642 
Au       4.01038154      -4.01038154       1.30285642 
Au      -4.01038154       4.01038154       1.30285642 
Au      -4.01038162      -4.01038162       1.30285642 
Au       4.01038162       4.01038162       1.30285642 
