20
-1554.413958
Au       2.53429456      -0.56107541       0.00000000 
Au      -2.53429456       0.56107541       0.00000000 
Au      -0.56056393       2.53406081       0.00000000 
Au       0.56056393      -2.53406081       0.00000000 
Au       1.45063921       1.45035424      -1.36518947 
Au      -1.45063921      -1.45035424      -1.36518947 
Au      -2.82170252       2.82246909      -1.32094640 
Au       2.82170252      -2.82246909      -1.32094640 
Au      -2.82170252       2.82246909       1.32094640 
Au       2.82170252      -2.82246909       1.32094640 
Au       1.45063921       1.45035424       1.36518947 
Au      -1.45063921      -1.45035424       1.36518947 
Au       0.93161737       0.93160741      -3.89984613 
Au      -0.93161737      -0.93160741      -3.89984613 
Au      -1.07764414       1.07771481      -2.21290269 
Au       1.07764414      -1.07771481      -2.21290269 
Au      -1.07764414       1.07771481       2.21290269 
Au       1.07764414      -1.07771481       2.21290269 
Au       0.93161737       0.93160741       3.89984613 
Au      -0.93161737      -0.93160741       3.89984613 
