20
-1548.942856
Au       1.94864094       0.00000000       0.00000000 
Au      -1.94864094      -0.00000000       0.00000000 
Au      -0.00000000       1.94864094       0.00000000 
Au      -0.00000000      -1.94864094      -0.00000000 
Au      -1.30587838      -1.30587838      -2.21265894 
Au       1.30587838       1.30587838      -2.21265894 
Au       1.30587838      -1.30587838      -2.21265894 
Au      -1.30587838       1.30587838      -2.21265894 
Au       1.30587838      -1.30587838       2.21265894 
Au      -1.30587838       1.30587838       2.21265894 
Au      -1.30587838      -1.30587838       2.21265894 
Au       1.30587838       1.30587838       2.21265894 
Au      -3.01582891      -3.01582891       1.28300262 
Au       3.01582891       3.01582891       1.28300262 
Au       3.01582891      -3.01582891       1.28300262 
Au      -3.01582891       3.01582891       1.28300262 
Au       3.01582891      -3.01582891      -1.28300262 
Au      -3.01582891       3.01582891      -1.28300262 
Au      -3.01582891      -3.01582891      -1.28300262 
Au       3.01582891       3.01582891      -1.28300262 
