20
-1554.008166
Au       2.21407838      -0.15678960       3.45645103 
Au      -2.21407838       0.15678960       3.45645103 
Au       0.06533573       1.32470432       2.97064694 
Au      -0.06533573      -1.32470432       2.97064694 
Au      -1.38947607      -0.17250038       0.98096415 
Au       1.38947607       0.17250038       0.98096415 
Au      -0.08867526      -2.50445014       0.60759151 
Au       0.08867526       2.50445014       0.60759151 
Au       1.40813768       1.58388767      -4.07505695 
Au      -1.40813768      -1.58388767      -4.07505695 
Au      -0.99762386       0.88698906      -3.31446725 
Au       0.99762386      -0.88698906      -3.31446725 
Au      -0.92715102      -1.03946280      -1.47892862 
Au       0.92715102       1.03946280      -1.47892862 
Au       1.80544615      -1.57546003      -0.92963927 
Au      -1.80544615       1.57546003      -0.92963927 
Au      -2.61401496      -2.42176668       0.02074481 
Au       2.61401496       2.42176668       0.02074481 
Au       2.22945936      -2.19426836       1.76169365 
Au      -2.22945936       2.19426836       1.76169365 
