20
-1550.896967
Au      -1.43572562      -0.40188726       0.00000000 
Au       1.43575245       0.40189996      -0.00000000 
Au       0.58066509      -2.05492646      -0.00000000 
Au      -0.58064875       2.05487285       0.00000000 
Au      -3.09349016       0.00289130      -2.10526010 
Au       3.09360408      -0.00290527      -2.10521387 
Au       0.05353800      -4.28248060      -1.29187478 
Au      -0.05359509       4.28250787      -1.29192660 
Au       3.09360408      -0.00290527       2.10521387 
Au      -3.09349016       0.00289130       2.10526010 
Au       0.05353800      -4.28248060       1.29187478 
Au      -0.05359508       4.28250787       1.29192660 
Au      -1.89860001      -3.04694889       0.00000000 
Au       1.89855846       3.04699855      -0.00000000 
Au       3.27101160      -1.52805094       0.00000000 
Au      -3.27102961       1.52795848      -0.00000000 
Au       2.33347315      -3.98550004      -0.00000000 
Au      -2.33355577       3.98542573       0.00000000 
Au      -3.87757590      -1.31355404      -0.00000000 
Au       3.87756124       1.31368546       0.00000000 
