20
-1553.507074
Au       1.90025964      -0.13112005      -0.10759547 
Au      -1.90026184       0.13111389      -0.10758544 
Au       0.34381365       2.17420962      -0.11353483 
Au      -0.34381618      -2.17421826      -0.11353553 
Au       1.80768198       1.37400259      -2.27807740 
Au      -1.80769153      -1.37400735      -2.27807673 
Au      -0.78828301       1.05640256      -2.28889001 
Au       0.78829431      -1.05638991      -2.28888237 
Au      -1.80559775      -1.41569393       2.03990948 
Au       1.80559634       1.41569636       2.03991385 
Au      -0.78945542       1.04418577       2.10051774 
Au       0.78945169      -1.04418895       2.10051748 
Au      -3.04608992      -2.21271258      -0.13444107 
Au       3.04608939       2.21273185      -0.13443620 
Au       0.68074997      -4.71657692       0.34585788 
Au      -0.68074410       4.71658634       0.34586325 
Au       2.19286452      -2.62835509       0.55155731 
Au      -2.19286302       2.62834165       0.55155879 
Au      -1.85284182      -4.50964360      -0.11532173 
Au       1.85284310       4.50963599      -0.11531898 
