20
-1546.819741
Au      -4.37462187      -0.26820908       0.00000000 
Au       4.37462187       0.26820907       0.00000000 
Au      -0.27254908      -4.33614367       0.00000000 
Au       0.27254909       4.33614367      -0.00000000 
Au      -4.15918312       2.31518300       0.00000000 
Au       4.15918313      -2.31518299       0.00000000 
Au      -2.82468728      -4.61759678      -0.00000000 
Au       2.82468727       4.61759678      -0.00000000 
Au       4.64914857       2.82107915      -0.00000000 
Au      -4.64914857      -2.82107915       0.00000000 
Au       2.31075796      -4.11656744       0.00000000 
Au      -2.31075797       4.11656743       0.00000000 
Au      -1.20883620       6.46264584       0.00000000 
Au       1.20883620      -6.46264583      -0.00000000 
Au      -6.79043207      -1.37022346      -0.00000000 
Au       6.79043207       1.37022346      -0.00000000 
Au       1.36846392       6.75506121       0.00000000 
Au      -1.36846392      -6.75506121       0.00000000 
Au       6.50362065      -1.20911470       0.00000000 
Au      -6.50362065       1.20911470       0.00000000 
