20
-1546.717161
Au       1.82152385      -0.00000000      -0.00000000 
Au      -1.82152385      -0.00000000      -0.00000000 
Au       0.00000000       1.82152385      -0.00000000 
Au      -0.00000000      -1.82152385      -0.00000000 
Au      -6.16435020      -1.28304887      -0.00000000 
Au       6.16435020       1.28304887       0.00000000 
Au       1.28304887      -6.16435020       0.00000000 
Au      -1.28304887       6.16435020       0.00000000 
Au       6.16435020      -1.28304887      -0.00000000 
Au      -6.16435020       1.28304887      -0.00000000 
Au      -1.28304887      -6.16435020       0.00000000 
Au       1.28304887       6.16435020      -0.00000000 
Au       1.84753353      -3.65569693      -0.00000000 
Au      -1.84753353       3.65569693      -0.00000000 
Au       3.65569693       1.84753353      -0.00000000 
Au      -3.65569693      -1.84753353       0.00000000 
Au      -1.84753353      -3.65569693      -0.00000000 
Au       1.84753353       3.65569693       0.00000000 
Au      -3.65569693       1.84753353       0.00000000 
Au       3.65569693      -1.84753353       0.00000000 
