20
-1545.073909
Au      -1.26115647      -0.00000002      -0.00000001 
Au       1.26115867       0.00000002       0.00000000 
Au       0.00000080      -2.22699140       0.00000000 
Au       0.00000074       2.22699135       0.00000000 
Au       3.45140349       1.31131305      -0.00000000 
Au      -3.45140124      -1.31131252       0.00000000 
Au      -1.29899062       4.44272526       0.00000000 
Au       1.29898675      -4.44273028       0.00000000 
Au      -3.45140125       1.31131256       0.00000000 
Au       3.45140342      -1.31131308      -0.00000000 
Au       1.29898675       4.44273028       0.00000000 
Au      -1.29899059      -4.44272519       0.00000000 
Au      -6.01995519       1.30560528       0.00000000 
Au       6.01995703      -1.30560534       0.00000000 
Au      -1.28287339      -7.02290311      -0.00000000 
Au       1.28287133       7.02290576       0.00000000 
Au       6.01995705       1.30560534       0.00000000 
Au      -6.01995524      -1.30560529       0.00000000 
Au       1.28287135      -7.02290579      -0.00000000 
Au      -1.28287340       7.02290313      -0.00000000 
