20
-1546.662154
Au      -5.85303809      -0.01122694       0.00000000 
Au       5.85303809       0.01122715       0.00000000 
Au      -0.28500671      -1.25807234       0.00000000 
Au       0.28500669       1.25807238      -0.00000000 
Au      -1.34821648       3.24165880      -0.00000000 
Au       1.34821658      -3.24165888       0.00000000 
Au      -6.16683062      -2.54291444       0.00000000 
Au       6.16683063       2.54291432       0.00000000 
Au       1.21570073       3.69402248      -0.00000000 
Au      -1.21570075      -3.69402250       0.00000000 
Au       6.21363351      -2.51354836      -0.00000000 
Au      -6.21363344       2.51354829       0.00000000 
Au       3.82532388       3.57865649       0.00000000 
Au      -3.82532391      -3.57865647       0.00000000 
Au      -2.30679109       5.63688488       0.00000000 
Au       2.30679111      -5.63688479      -0.00000000 
Au      -3.92591846       3.64682650       0.00000000 
Au       3.92591832      -3.64682658      -0.00000000 
Au       2.61418964       5.86174013       0.00000000 
Au      -2.61418963      -5.86174013      -0.00000000 
