20
-1552.849328
Au      -5.67214718      -0.11960591      -0.00000001 
Au       5.67214718       0.11960585       0.00000001 
Au      -0.03880246      -5.13626577       0.00000000 
Au       0.03880245       5.13626575      -0.00000000 
Au      -0.90618828      -0.95888224      -1.37407533 
Au       0.90618829       0.95888225      -1.37407537 
Au       1.63881229      -1.53716250      -1.32729938 
Au      -1.63881246       1.53716248      -1.32729947 
Au       1.63881229      -1.53716250       1.32729937 
Au      -1.63881246       1.53716248       1.32729946 
Au      -0.90618828      -0.95888224       1.37407533 
Au       0.90618829       0.95888225       1.37407537 
Au       3.16573372       0.90334364      -0.00000000 
Au      -3.16573374      -0.90334371       0.00000001 
Au      -2.15408408       3.72384915       0.00000000 
Au       2.15408395      -3.72384913      -0.00000000 
Au      -3.88967769       1.75580035      -0.00000000 
Au       3.88967772      -1.75580039      -0.00000000 
Au       1.59705612       3.05531779      -0.00000000 
Au      -1.59705565      -3.05531761       0.00000000 
