20
-1554.128204
Au       1.94088050      -0.00000024       1.33174970 
Au      -1.94088050       0.00000030       1.33174970 
Au      -0.00000027       1.94088050       1.33174970 
Au       0.00000028      -1.94088050       1.33174970 
Au      -3.17487140      -0.00000004      -1.14578504 
Au       3.17487140       0.00000004      -1.14578504 
Au      -0.00000003      -3.17487140      -1.14578504 
Au       0.00000003       3.17487140      -1.14578504 
Au       2.32472945       2.32472944       2.46943411 
Au      -2.32472946      -2.32472947       2.46943414 
Au      -2.32472923       2.32472923       2.46943381 
Au       2.32472924      -2.32472925       2.46943383 
Au       1.31934058       1.31934058      -2.50651827 
Au      -1.31934058      -1.31934058      -2.50651827 
Au      -1.31934057       1.31934057      -2.50651830 
Au       1.31934057      -1.31934057      -2.50651830 
Au      -2.21834753      -2.21834753      -0.14888047 
Au       2.21834753       2.21834752      -0.14888045 
Au       2.21834750      -2.21834751      -0.14888024 
Au      -2.21834750       2.21834750      -0.14888022 
