20
-1548.496892
Au      -1.81887693       0.00000000       0.00000000 
Au       1.81887693      -0.00000000       0.00000000 
Au       0.00000000      -1.81887693      -0.00000000 
Au       0.00000000       1.81887693      -0.00000000 
Au      -3.12701048      -1.29663363       1.87912120 
Au       3.12701048       1.29663363       1.87912120 
Au       1.29663363      -3.12701048       1.87912120 
Au      -1.29663363       3.12701048       1.87912120 
Au       3.12701048      -1.29663363      -1.87912120 
Au      -3.12701048       1.29663363      -1.87912120 
Au      -1.29663363      -3.12701048      -1.87912120 
Au       1.29663363       3.12701048      -1.87912120 
Au       3.12701048       1.29663363      -1.87912120 
Au      -3.12701048      -1.29663363      -1.87912120 
Au      -1.29663363       3.12701048      -1.87912120 
Au       1.29663363      -3.12701048      -1.87912120 
Au      -3.12701048       1.29663363       1.87912120 
Au       3.12701048      -1.29663363       1.87912120 
Au       1.29663363       3.12701048       1.87912120 
Au      -1.29663363      -3.12701048       1.87912120 
