20
-1548.496886
Au       1.81889618      -0.00000000       0.00000000 
Au      -1.81889618       0.00000000       0.00000000 
Au      -0.00000000       1.81889604      -0.00000000 
Au       0.00000000      -1.81889604      -0.00000000 
Au      -3.12683513      -1.29672427       1.87895689 
Au       3.12683513       1.29672427       1.87895689 
Au       1.29672446      -3.12683519       1.87895680 
Au      -1.29672446       3.12683519       1.87895680 
Au       3.12683512      -1.29672427      -1.87895688 
Au      -3.12683512       1.29672427      -1.87895688 
Au      -1.29672446      -3.12683520      -1.87895681 
Au       1.29672446       3.12683520      -1.87895681 
Au       3.12683513       1.29672427      -1.87895689 
Au      -3.12683513      -1.29672427      -1.87895689 
Au      -1.29672446       3.12683519      -1.87895680 
Au       1.29672446      -3.12683519      -1.87895680 
Au      -3.12683512       1.29672427       1.87895688 
Au       3.12683512      -1.29672427       1.87895688 
Au       1.29672446       3.12683520       1.87895681 
Au      -1.29672446      -3.12683520       1.87895681 
