20
-1551.03691
Au       2.24596656       2.24596656      -0.00000000 
Au      -2.24596656      -2.24596656       0.00000000 
Au      -2.24596656       2.24596656       0.00000000 
Au       2.24596656      -2.24596656      -0.00000000 
Au      -1.84778670      -0.00000000       3.93684610 
Au       1.84778670      -0.00000000       3.93684610 
Au       0.00000000      -1.84778670       3.93684610 
Au       0.00000000       1.84778670       3.93684610 
Au       1.84778670       0.00000000      -3.93684610 
Au      -1.84778670       0.00000000      -3.93684610 
Au       0.00000000      -1.84778670      -3.93684610 
Au       0.00000000       1.84778670      -3.93684610 
Au       1.92476410      -0.00000000      -1.31832995 
Au      -1.92476410       0.00000000      -1.31832995 
Au      -0.00000000       1.92476410      -1.31832995 
Au       0.00000000      -1.92476410      -1.31832995 
Au      -1.92476410      -0.00000000       1.31832995 
Au       1.92476410      -0.00000000       1.31832995 
Au      -0.00000000       1.92476410       1.31832995 
Au       0.00000000      -1.92476410       1.31832995 
