20
-1548.942851
Au       1.37815206       1.37815206       0.00000000 
Au      -1.37815206      -1.37815206      -0.00000000 
Au      -1.37815206       1.37815206      -0.00000000 
Au       1.37815206      -1.37815206       0.00000000 
Au       4.26470002      -0.00000000      -1.28304802 
Au      -4.26470002      -0.00000000      -1.28304802 
Au      -0.00000000       4.26470002      -1.28304802 
Au      -0.00000000      -4.26470002      -1.28304802 
Au      -4.26470002       0.00000000       1.28304802 
Au       4.26470002       0.00000000       1.28304802 
Au       0.00000000       4.26470002       1.28304802 
Au       0.00000000      -4.26470002       1.28304802 
Au       1.84659650      -0.00000000       2.21282002 
Au      -1.84659650      -0.00000000       2.21282002 
Au      -0.00000000       1.84659650       2.21282002 
Au      -0.00000000      -1.84659650       2.21282002 
Au      -1.84659650       0.00000000      -2.21282002 
Au       1.84659650       0.00000000      -2.21282002 
Au       0.00000000       1.84659650      -2.21282002 
Au       0.00000000      -1.84659650      -2.21282002 
