20
-1551.688837
Au      -1.43146834      -1.43144600      -0.00000459 
Au       1.43146046       1.43145516       0.00000099 
Au       1.43145364      -1.43147366       0.00000305 
Au      -1.43146436       1.43146327      -0.00000114 
Au       2.84266888       0.00001584      -1.70763073 
Au      -2.84266430      -0.00001188      -1.70762612 
Au      -0.00002964       2.84266761      -1.70762938 
Au       0.00006115      -2.84266618      -1.70763038 
Au      -2.84266385       0.00000808       1.70762820 
Au       2.84266685      -0.00000426       1.70762937 
Au       0.00000197       2.84266800       1.70762958 
Au       0.00007352      -2.84266494       1.70763109 
Au      -2.51991750      -2.51988650       2.20456803 
Au       2.51988696       2.51988995       2.20456098 
Au       2.51985820      -2.51989550       2.20454855 
Au      -2.51989569       2.51988561       2.20455430 
Au       2.51986395      -2.51990410      -2.20455104 
Au      -2.51987975       2.51989876      -2.20455330 
Au      -2.51991388      -2.51987939      -2.20456513 
Au       2.51990174       2.51988013      -2.20456235 
