20
-1552.866415
Au      -1.97241880      -0.00000000      -1.33206683 
Au       1.97241880       0.00000000      -1.33206683 
Au       0.00000000      -1.97241880      -1.33206683 
Au       0.00000000       1.97241880      -1.33206683 
Au       1.97129599       0.00000000       1.33172480 
Au      -1.97129599       0.00000000       1.33172480 
Au       0.00000000       1.97129599       1.33172480 
Au       0.00000000      -1.97129599       1.33172480 
Au       1.31514487       1.31514487       3.54963080 
Au      -1.31514487      -1.31514487       3.54963080 
Au      -1.31514487       1.31514487       3.54963080 
Au       1.31514487      -1.31514487       3.54963080 
Au      -2.25563386      -2.25563386       0.00009701 
Au       2.25563386       2.25563386       0.00009701 
Au       2.25563386      -2.25563386       0.00009701 
Au      -2.25563386       2.25563386       0.00009701 
Au       1.31507613       1.31507613      -3.54938578 
Au      -1.31507613      -1.31507613      -3.54938578 
Au      -1.31507613       1.31507613      -3.54938578 
Au       1.31507613      -1.31507613      -3.54938578 
