20
-1543.034624
Au      -1.25039739      -1.25039739       0.00000005 
Au       1.25039739       1.25039739       0.00000005 
Au       1.25120276      -1.25120276      -0.00000005 
Au      -1.25120276       1.25120276      -0.00000005 
Au       3.96848885       3.96848885      -3.27677861 
Au      -3.96848885      -3.96848885      -3.27677861 
Au      -3.97507351       3.97507351      -3.27024643 
Au       3.97507351      -3.97507351      -3.27024643 
Au      -3.97507353       3.97507353       3.27024639 
Au       3.97507353      -3.97507353       3.27024639 
Au       3.96848883       3.96848883       3.27677864 
Au      -3.96848883      -3.96848883       3.27677864 
Au      -2.81546225      -2.81546225       1.30361296 
Au       2.81546225       2.81546225       1.30361296 
Au       2.81631750      -2.81631750       1.30373747 
Au      -2.81631750       2.81631750       1.30373747 
Au       2.81631758      -2.81631758      -1.30373739 
Au      -2.81631758       2.81631758      -1.30373739 
Au      -2.81546217      -2.81546217      -1.30361305 
Au       2.81546217       2.81546217      -1.30361305 
