20
-1549.161871
Au      -2.69830491      -2.69830491      -0.00000221 
Au       2.69830490       2.69830490      -0.00000287 
Au       2.69830489      -2.69830489      -0.00000051 
Au      -2.69830490       2.69830490      -0.00000465 
Au      -1.30058341      -1.30058427       1.73200747 
Au       1.30058441       1.30058355       1.73200752 
Au       1.30058316      -1.30058324       1.73200734 
Au      -1.30058492       1.30058484       1.73200771 
Au       1.30060745      -1.30060740      -1.73200935 
Au      -1.30060565       1.30060570      -1.73200897 
Au      -1.30060689      -1.30060601      -1.73200915 
Au       1.30060593       1.30060681      -1.73200911 
Au      -3.04371831      -3.04371832       2.52597220 
Au       3.04371829       3.04371827       2.52597247 
Au       3.04371844      -3.04371844       2.52597133 
Au      -3.04371789       3.04371789       2.52597303 
Au       3.04370864      -3.04370864      -2.52596879 
Au      -3.04370923       3.04370923      -2.52596714 
Au      -3.04370909      -3.04370907      -2.52596831 
Au       3.04370907       3.04370909      -2.52596801 
