20
-1551.041271
Au       3.80360248       3.80360248      -0.00000000 
Au      -3.80360248      -3.80360248       0.00000000 
Au      -3.80360248       3.80360248      -0.00000000 
Au       3.80360248      -3.80360248       0.00000000 
Au       1.85329128      -0.00000000       1.87909430 
Au      -1.85329128      -0.00000000       1.87909430 
Au       0.00000000       1.85329128       1.87909430 
Au       0.00000000      -1.85329128       1.87909430 
Au      -1.85329128       0.00000000      -1.87909430 
Au       1.85329128       0.00000000      -1.87909430 
Au      -0.00000000       1.85329128      -1.87909430 
Au      -0.00000000      -1.85329128      -1.87909430 
Au      -3.13920281      -1.29226685      -0.00000000 
Au       3.13920281       1.29226685       0.00000000 
Au       1.29226685      -3.13920281      -0.00000000 
Au      -1.29226685       3.13920281       0.00000000 
Au       3.13920281      -1.29226685      -0.00000000 
Au      -3.13920281       1.29226685       0.00000000 
Au      -1.29226685      -3.13920281      -0.00000000 
Au       1.29226685       3.13920281       0.00000000 
