20
-1546.873976
Au      -3.71091778      -3.70989582       0.00000000 
Au       3.71091778       3.70989582       0.00000000 
Au       3.93539702      -3.93442396       0.00000000 
Au      -3.93539702       3.93442396      -0.00000000 
Au      -1.18609322      -3.00867400      -0.00000000 
Au       1.18609322       3.00867400       0.00000000 
Au       3.24531875      -1.39222813      -0.00000000 
Au      -3.24531875       1.39222813       0.00000000 
Au       1.39469098      -3.24681003      -0.00000000 
Au      -1.39469098       3.24681003      -0.00000000 
Au      -2.99030954      -1.18851144      -0.00000000 
Au       2.99030954       1.18851144       0.00000000 
Au      -1.85800239      -5.50002074      -0.00000000 
Au       1.85800239       5.50002074      -0.00000000 
Au       5.74394634      -2.11129500       0.00000000 
Au      -5.74394634       2.11129500       0.00000000 
Au       2.11564028      -5.74616297      -0.00000000 
Au      -2.11564028       5.74616297      -0.00000000 
Au      -5.48628201      -1.84254576       0.00000000 
Au       5.48628201       1.84254576      -0.00000000 
