20
-1551.37442
Au       1.86570228       0.00000000      -2.13778945 
Au      -1.86570228      -0.00000000      -2.13778945 
Au       0.00000000       1.86570228      -2.13778945 
Au      -0.00000000      -1.86570228      -2.13778945 
Au       2.92717239       2.92717239       1.55625424 
Au      -2.92717239      -2.92717239       1.55625424 
Au      -2.92717239       2.92717239       1.55625424 
Au       2.92717239      -2.92717239       1.55625424 
Au      -1.41222621      -1.41222621       0.04940476 
Au       1.41222621       1.41222621       0.04940476 
Au       1.41222621      -1.41222621       0.04940476 
Au      -1.41222621       1.41222621       0.04940476 
Au       1.29831503       1.29831503       2.72465732 
Au      -1.29831503      -1.29831503       2.72465732 
Au      -1.29831503       1.29831503       2.72465731 
Au       1.29831503      -1.29831503       2.72465731 
Au       2.51247973       2.51247973      -2.19252686 
Au      -2.51247973      -2.51247973      -2.19252686 
Au      -2.51247973       2.51247973      -2.19252686 
Au       2.51247973      -2.51247973      -2.19252686 
