20
-1551.516846
Au      -3.89279070      -3.89279070       0.00000000 
Au       3.89279070       3.89279070      -0.00000000 
Au       3.89279070      -3.89279070      -0.00000000 
Au      -3.89279070       3.89279070      -0.00000000 
Au      -1.30414495      -1.30414495       1.35190386 
Au       1.30414495       1.30414495       1.35190386 
Au       1.30414495      -1.30414495       1.35190386 
Au      -1.30414495       1.30414495       1.35190386 
Au       1.30414495      -1.30414495      -1.35190386 
Au      -1.30414495       1.30414495      -1.35190386 
Au      -1.30414495      -1.30414495      -1.35190386 
Au       1.30414495       1.30414495      -1.35190386 
Au       1.31113905      -3.55526167      -0.00000000 
Au      -1.31113905       3.55526167       0.00000000 
Au       3.55526167       1.31113905       0.00000000 
Au      -3.55526167      -1.31113905       0.00000000 
Au      -1.31113905      -3.55526167      -0.00000000 
Au       1.31113905       3.55526167       0.00000000 
Au      -3.55526167       1.31113905      -0.00000000 
Au       3.55526167      -1.31113905       0.00000000 
