20
-1544.63298
Au      -2.88277471      -2.88276957       0.00000000 
Au       2.88277471       2.88276957       0.00000000 
Au       2.88426334      -2.88425484      -0.00000000 
Au      -2.88426334       2.88425484      -0.00000000 
Au       1.30657162       1.30657108      -1.31203554 
Au      -1.30657162      -1.30657108      -1.31203554 
Au      -1.30815465       1.30815595      -1.31209321 
Au       1.30815465      -1.30815595      -1.31209321 
Au      -1.30815465       1.30815595       1.31209321 
Au       1.30815465      -1.30815595       1.31209321 
Au       1.30657162       1.30657108       1.31203554 
Au      -1.30657162      -1.30657108       1.31203554 
Au      -5.38069234       3.55364893      -0.00000000 
Au       5.38069234      -3.55364893       0.00000000 
Au      -3.55224615      -5.37919358       0.00000000 
Au       3.55224615       5.37919358      -0.00000000 
Au       5.37919601       3.55223940      -0.00000000 
Au      -5.37919601      -3.55223940       0.00000000 
Au       3.55365478      -5.38068828      -0.00000000 
Au      -3.55365478       5.38068828       0.00000000 
