20
-1550.680563
Au      -1.58986604      -1.19935963      -0.00000000 
Au       1.58986606       1.19935983       0.00000000 
Au       0.98263376      -1.29106317      -0.00000000 
Au      -0.98263354       1.29106306       0.00000000 
Au       4.08912200       4.21092433       1.31836990 
Au      -4.08912203      -4.21092435       1.31836986 
Au      -2.73639840       2.74546679       1.29605659 
Au       2.73639838      -2.74546686       1.29605653 
Au      -2.73639840       2.74546679      -1.29605659 
Au       2.73639838      -2.74546686      -1.29605653 
Au       4.08912200       4.21092433      -1.31836990 
Au      -4.08912203      -4.21092435      -1.31836986 
Au      -0.70897131       3.83752758       0.00000000 
Au       0.70897128      -3.83752741      -0.00000000 
Au      -4.07132709      -1.96425001       0.00000000 
Au       4.07132718       1.96424995      -0.00000000 
Au       1.87344139       3.81369219       0.00000000 
Au      -1.87344165      -3.81369212      -0.00000000 
Au       3.52864483      -0.58232649       0.00000000 
Au      -3.52864479       0.58232640      -0.00000000 
