20
-1548.496834
Au      -1.28649445      -1.28649445       0.00000000 
Au       1.28649445       1.28649445       0.00000000 
Au       1.28649445      -1.28649445       0.00000000 
Au      -1.28649445       1.28649445       0.00000000 
Au      -3.12728864      -1.29400734       1.88127136 
Au       3.12728864       1.29400734       1.88127136 
Au       1.29400734      -3.12728864       1.88127136 
Au      -1.29400734       3.12728864       1.88127136 
Au       3.12728861      -1.29400733      -1.88127137 
Au      -3.12728861       1.29400733      -1.88127137 
Au      -1.29400733      -3.12728861      -1.88127137 
Au       1.29400733       3.12728861      -1.88127137 
Au       3.12728861       1.29400733      -1.88127137 
Au      -3.12728861      -1.29400733      -1.88127137 
Au      -1.29400733       3.12728861      -1.88127137 
Au       1.29400733      -3.12728861      -1.88127137 
Au      -3.12728864       1.29400734       1.88127136 
Au       3.12728864      -1.29400734       1.88127136 
Au       1.29400734       3.12728864       1.88127136 
Au      -1.29400734      -3.12728864       1.88127136 
