20
-1548.886641
Au       2.37808990       2.37808990       0.00000000 
Au      -2.37808990      -2.37808990      -0.00000000 
Au      -2.37808990       2.37808990      -0.00000000 
Au       2.37808990      -2.37808990      -0.00000000 
Au       3.12067256      -1.28872514       2.24398130 
Au      -3.12067256       1.28872514       2.24398130 
Au       1.28872514       3.12067256       2.24398130 
Au      -1.28872514      -3.12067256       2.24398130 
Au      -3.12067256      -1.28872514      -2.24398130 
Au       3.12067256       1.28872514      -2.24398130 
Au      -1.28872514       3.12067256      -2.24398130 
Au       1.28872514      -3.12067256      -2.24398130 
Au      -3.12067256       1.28872514      -2.24398130 
Au       3.12067256      -1.28872514      -2.24398130 
Au      -1.28872514      -3.12067256      -2.24398130 
Au       1.28872514       3.12067256      -2.24398130 
Au       3.12067256       1.28872514       2.24398130 
Au      -3.12067256      -1.28872514       2.24398130 
Au       1.28872514      -3.12067256       2.24398130 
Au      -1.28872514       3.12067256       2.24398130 
