20
-1553.868871
Au       0.00000000      -0.00000000       2.90271506 
Au       0.00000000      -0.00000000      -1.61912493 
Au       0.00000000      -1.32634339       0.63376973 
Au      -0.00000000       1.32634339       0.63376973 
Au       0.00000000       2.60543907       2.90187740 
Au       0.00000000      -2.60543907       2.90187740 
Au      -0.00000000       2.66717433      -1.61899195 
Au      -0.00000000      -2.66717433      -1.61899195 
Au       0.00000000      -5.25222811       2.91652149 
Au       0.00000000       5.25222811       2.91652149 
Au       0.00000000      -1.31020179       5.19399014 
Au       0.00000000       1.31020179       5.19399014 
Au      -0.00000000      -3.91687447       5.15533421 
Au      -0.00000000       3.91687447       5.15533421 
Au       0.00000000       1.30039373      -3.89836702 
Au      -0.00000000      -1.30039373      -3.89836702 
Au      -0.00000000       3.89196543      -3.90068135 
Au      -0.00000000      -3.89196543      -3.90068135 
Au       0.00000000      -3.94832175       0.65496890 
Au      -0.00000000       3.94832175       0.65496890 
