20
-1551.456898
Au      -0.00000000       0.00000000      -2.89248164 
Au      -0.00000000       0.00000000      -0.29688500 
Au      -0.00000000       3.88546779      -5.27955658 
Au      -0.00000000      -3.88546779      -5.27955658 
Au      -0.00000000       1.29103649      -5.24655306 
Au      -0.00000000      -1.29103649      -5.24655306 
Au       0.00000000      -2.63685997      -3.00674444 
Au       0.00000000       2.63685997      -3.00674444 
Au       0.00000000       2.54959262      -0.43027080 
Au      -0.00000000      -2.54959262      -0.43027080 
Au      -0.00000000       3.88571260       4.35105221 
Au      -0.00000000      -3.88571260       4.35105221 
Au      -0.00000000       6.14762576       3.07960540 
Au      -0.00000000      -6.14762576       3.07960540 
Au      -0.00000000      -3.94057226       1.74218578 
Au      -0.00000000       3.94057226       1.74218578 
Au      -0.00000000       1.29948628       4.48669724 
Au      -0.00000000      -1.29948628       4.48669724 
Au       0.00000000      -1.32293687       1.89826756 
Au       0.00000000       1.32293687       1.89826756 
