20
-1550.84607
Au       1.33929305       0.00934706       1.40195578 
Au      -1.33864418      -0.00915595       1.40110023 
Au      -0.01517415       2.23019580       1.29050120 
Au       0.01555972      -2.23004018       1.29064633 
Au      -1.43520457      -1.18825696      -3.41927876 
Au       1.43502500       1.18769979      -3.41888951 
Au       1.15910279      -1.39757607      -3.42419280 
Au      -1.15933951       1.39735172      -3.42460936 
Au      -2.58472115      -2.29621260       1.31193113 
Au       2.58498396       2.29631886       1.31177338 
Au       2.61662215      -2.25960021       1.30217386 
Au      -2.61624582       2.25941292       1.30320523 
Au       1.36243695       1.39833017      -0.84148920 
Au      -1.36335079      -1.39859484      -0.84204102 
Au      -1.37096678       1.37739665      -0.84518901 
Au       1.37010792      -1.37658068      -0.84495026 
Au       4.32032881       4.16692952       1.62147396 
Au      -4.31986371      -4.16700761       1.62083332 
Au      -4.36446987       4.11983821       1.60227853 
Au       4.36452020      -4.11979561       1.60276695 
