20
-1551.884971
Au       0.00000000       0.00000000       6.05748024 
Au      -0.00000000       0.00000000       1.53560756 
Au       0.00000000      -5.21493028       1.41276029 
Au      -0.00000000       5.21493028       1.41276029 
Au      -0.00000000      -1.32496143       3.80713305 
Au      -0.00000000       1.32496143       3.80713305 
Au       0.00000000      -1.31185876      -5.89289451 
Au      -0.00000000       1.31185876      -5.89289451 
Au      -0.00000000      -1.29272880      -3.30032631 
Au      -0.00000000       1.29272880      -3.30032631 
Au       0.00000000       3.85444706      -0.83055207 
Au       0.00000000      -3.85444706      -0.83055207 
Au       0.00000000       3.94785644       3.69030556 
Au      -0.00000000      -3.94785644       3.69030556 
Au       0.00000000       3.86595270      -3.42194618 
Au      -0.00000000      -3.86595270      -3.42194618 
Au       0.00000000       2.60049489       1.46867225 
Au       0.00000000      -2.60049489       1.46867225 
Au      -0.00000000       1.27518048      -0.72969600 
Au      -0.00000000      -1.27518048      -0.72969600 
