20
-1549.76543
Au       0.00000000      -0.00000838      -3.86214652 
Au      -0.00000000      -0.00000555       5.96810305 
Au       0.00000000       3.89078190      -1.49610046 
Au      -0.00000000      -3.89076907      -1.49605672 
Au      -0.00000000       1.30392583       1.09983560 
Au       0.00000000      -1.30389603       1.09985117 
Au      -0.00000000      -2.59940346       5.93688969 
Au       0.00000000       2.59939269       5.93685859 
Au      -0.00000000      -4.84474683       4.64687490 
Au       0.00000000       4.84476780       4.64690345 
Au       0.00000001       2.60146529      -3.74525074 
Au      -0.00000001      -2.60148086      -3.74522293 
Au      -0.00000000       1.29321369      -1.49137984 
Au       0.00000000      -1.29320075      -1.49136792 
Au      -0.00000000       3.53079218       2.42315274 
Au       0.00000000      -3.53079716       2.42310840 
Au      -0.00000000      -1.28195092       3.68314468 
Au       0.00000000       1.28191090       3.68312975 
Au       2.12853320       0.00000436      -2.33958466 
Au      -2.12853320       0.00000435      -2.33958466 
