20
-1551.023051
Au       0.00000000       0.00000000      -5.18533909 
Au      -0.00000000      -0.00000000       2.14268872 
Au       0.00000000      -3.61008048      -4.09562078 
Au       0.00000000       3.61008048      -4.09562078 
Au      -0.00000000      -4.80769939       0.76183871 
Au      -0.00000000       4.80769939       0.76183871 
Au       0.00000000      -1.29312171       4.40102530 
Au      -0.00000000       1.29312171       4.40102530 
Au      -0.00000000       3.57155692      -1.50201100 
Au      -0.00000000      -3.57155692      -1.50201100 
Au      -0.00000000      -3.87850180       4.41082628 
Au      -0.00000000       3.87850180       4.41082628 
Au       0.00000000      -1.31744512      -2.89290917 
Au       0.00000000       1.31744512      -2.89290917 
Au      -0.00000000      -2.61382236       2.11803945 
Au      -0.00000000       2.61382236       2.11803945 
Au      -0.00000000      -1.32525635      -0.15484774 
Au      -0.00000000       1.32525635      -0.15484774 
Au      -1.84519632      -0.00000000      -1.52501588 
Au       1.84519632      -0.00000000      -1.52501588 
