20
-1551.721778
Au      -0.00000000      -0.00000000       4.01478476 
Au       0.00000000       0.00000000      -3.18612286 
Au      -0.00000000       3.89415771      -0.93789850 
Au      -0.00000000      -3.89415771      -0.93789850 
Au      -0.00000000       1.29845739       1.65794789 
Au      -0.00000000      -1.29845739       1.65794789 
Au      -0.00000000       1.30410635      -5.43821066 
Au       0.00000000      -1.30410635      -5.43821066 
Au       0.00000000      -2.61567713      -3.19586710 
Au      -0.00000000       2.61567713      -3.19586710 
Au       0.00000000      -3.92052321       1.67946218 
Au       0.00000000       3.92052321       1.67946218 
Au       0.00000000       2.62460327       3.92139205 
Au       0.00000000      -2.62460327       3.92139205 
Au      -0.00000000      -1.28900202      -0.93071054 
Au      -0.00000000       1.28900202      -0.93071054 
Au      -0.00000000      -6.14477022       0.32339216 
Au      -0.00000000       6.14477022       0.32339216 
Au       2.14030845      -0.00000000       2.50616158 
Au      -2.14030845      -0.00000000       2.50616158 
