20
-1549.495734
Au       0.00000014       0.00002426       4.38842750 
Au       0.00000027       0.00001339       1.69947614 
Au      -0.00000097       2.29974306      -2.94663659 
Au      -0.00000096      -2.29971882      -2.94664520 
Au      -0.00000056      -2.58152683       4.24427492 
Au       0.00000027       2.58155870       4.24426427 
Au      -0.00000035       3.86478907      -5.01456250 
Au      -0.00000034      -3.86479989      -5.01453486 
Au       0.00000032       2.63620578       1.63332398 
Au       0.00000007      -2.63617569       1.63332173 
Au       0.00000012      -1.28835297      -0.56759435 
Au       0.00000015       1.28836923      -0.56760216 
Au       0.00000167       1.28848975      -5.36242858 
Au       0.00000167      -1.28851089      -5.36245638 
Au      -0.00000002       4.83749613       2.98882944 
Au       0.00000003      -4.83746725       2.98883067 
Au       2.22168780      -0.00007929       3.07191183 
Au      -2.22168740      -0.00008046       3.07191164 
Au       1.28635042       0.00001135      -2.50696308 
Au      -1.28635234       0.00001136      -2.50696111 
