20
-1551.938352
Au      -0.00000000       0.00000000      -4.01907901 
Au      -0.00000000      -0.00000000       4.18708942 
Au      -0.00000000       6.20232568      -0.23074553 
Au       0.00000000      -6.20232568      -0.23074553 
Au      -0.00000000      -1.33726262       0.93839757 
Au       0.00000000       1.33726262       0.93839757 
Au      -0.00000000       3.96578529       1.08648460 
Au       0.00000000      -3.96578529       1.08648460 
Au       0.00000000       4.01801414      -1.64337245 
Au      -0.00000000      -4.01801414      -1.64337245 
Au      -0.00000000      -1.31316252      -1.65727450 
Au       0.00000000       1.31316252      -1.65727450 
Au      -0.00000000      -2.63320683      -3.87055597 
Au       0.00000000       2.63320683      -3.87055597 
Au      -0.00000000       2.45587490       3.26319539 
Au       0.00000000      -2.45587490       3.26319539 
Au       1.90345665      -0.00000000      -0.29159828 
Au      -1.90345665       0.00000000      -0.29159828 
Au       1.79188476      -0.00000000       2.32146396 
Au      -1.79188476       0.00000000       2.32146396 
