20
-1549.048909
Au       0.00000000       0.00000000      -3.54996940 
Au      -0.00000000       0.00000000      -0.96342869 
Au      -0.00000000      -1.30027304      -7.64186284 
Au       0.00000000       1.30027304      -7.64186284 
Au       0.00000000      -3.79502131       2.48419233 
Au      -0.00000000       3.79502131       2.48419233 
Au       0.00000000       2.09642546       0.53246308 
Au       0.00000000      -2.09642546       0.53246309 
Au      -0.00000000       1.29821096       5.53861619 
Au      -0.00000000      -1.29821096       5.53861620 
Au       0.00000000       2.11239574      -5.14835111 
Au      -0.00000000      -2.11239574      -5.14835111 
Au       0.00000000      -1.27888494       2.96265953 
Au      -0.00000000       1.27888493       2.96265953 
Au      -0.00000000      -3.84181223       5.07240827 
Au      -0.00000000       3.84181223       5.07240827 
Au       1.38887818       0.00000000      -5.82316600 
Au      -1.38887818       0.00000000      -5.82316600 
Au      -1.90482369      -0.00000000       4.27973959 
Au       1.90482369      -0.00000000       4.27973959 
