20
-1553.046909
Au      -0.00000000       0.00000000       1.22359118 
Au       0.00000000      -0.00000000      -4.88125701 
Au       0.00000000      -1.31203815       3.46045126 
Au      -0.00000000       1.31203815       3.46045126 
Au      -0.00000000       1.32894445      -1.02341543 
Au      -0.00000000      -1.32894445      -1.02341543 
Au       0.00000000      -3.90520961       3.50271888 
Au      -0.00000000       3.90520961       3.50271888 
Au      -0.00000000       2.82763459       1.13496077 
Au      -0.00000000      -2.82763459       1.13496077 
Au       0.00000000       3.88832308      -1.35396182 
Au      -0.00000000      -3.88832308      -1.35396182 
Au       0.00000000      -2.23059422      -3.49716236 
Au       0.00000000       2.23059422      -3.49716236 
Au       1.47186511      -0.00000000      -2.74466390 
Au      -1.47186511       0.00000000      -2.74466390 
Au       2.22880737       0.00000000       2.53858638 
Au      -2.22880737       0.00000000       2.53858638 
Au       2.18725940      -0.00000000      -0.18868087 
Au      -2.18725940       0.00000000      -0.18868087 
