20
-1551.374404
Au      -1.86592963      -0.00000000       2.13815612 
Au       1.86592963       0.00000000       2.13815612 
Au      -0.00000000      -1.86592963       2.13815612 
Au       0.00000000       1.86592963       2.13815612 
Au      -2.92719461      -2.92719461      -1.55564753 
Au       2.92719461       2.92719461      -1.55564753 
Au       2.92719461      -2.92719461      -1.55564753 
Au      -2.92719461       2.92719461      -1.55564753 
Au       1.41196722       1.41196722      -0.04933800 
Au      -1.41196722      -1.41196722      -0.04933800 
Au      -1.41196722       1.41196722      -0.04933800 
Au       1.41196723      -1.41196723      -0.04933800 
Au      -1.29833056      -1.29833056      -2.72476394 
Au       1.29833056       1.29833056      -2.72476394 
Au       1.29833056      -1.29833056      -2.72476393 
Au      -1.29833056       1.29833056      -2.72476393 
Au      -2.51235097      -2.51235097       2.19159334 
Au       2.51235097       2.51235097       2.19159334 
Au       2.51235097      -2.51235097       2.19159334 
Au      -2.51235097       2.51235097       2.19159334 
