20
-1550.379914
Au       0.00000000       0.00000023      -0.98040898 
Au      -0.00000000       0.00000002      -3.65114878 
Au      -0.00000000      -4.80259022      -2.57801973 
Au      -0.00000000       4.80259030      -2.57801972 
Au      -0.00000000      -3.87494268       2.48838721 
Au      -0.00000000       3.87494270       2.48838725 
Au      -0.00000000       1.31010280       3.07018433 
Au      -0.00000000      -1.31010281       3.07018433 
Au      -0.00000000       4.63153852      -0.00474514 
Au      -0.00000000      -4.63153843      -0.00474509 
Au      -0.00000000       2.23807553      -2.25383577 
Au       0.00000000      -2.23807578      -2.25383587 
Au       0.00000000       2.11557121       0.54262157 
Au       0.00000000      -2.11557141       0.54262163 
Au       1.41124168       0.00000001       1.24820295 
Au      -1.41124168       0.00000001       1.24820295 
Au      -2.22493715       0.00000000      -2.33933336 
Au       2.22493715      -0.00000000      -2.33933336 
Au      -3.84215567       0.00000000       2.14231680 
Au       3.84215567       0.00000000       2.14231680 
