20
-1551.426597
Au      -0.00000000       0.00000000       1.01362468 
Au       0.00000000       0.00000000       3.59409886 
Au      -0.00000000      -2.24003180      -0.53945966 
Au       0.00000000       2.24003180      -0.53945966 
Au       0.00000000       4.48302660       3.52484321 
Au       0.00000000      -4.48302660       3.52484321 
Au       0.00000000       2.23027980       2.27805318 
Au      -0.00000000      -2.23027980       2.27805318 
Au       0.00000000       1.32198728      -3.15174075 
Au       0.00000000      -1.32198728      -3.15174075 
Au      -0.00000000      -4.42823327       0.90372088 
Au      -0.00000000       4.42823327       0.90372088 
Au       2.30957190       0.00000000      -3.62126923 
Au      -2.30957190       0.00000000      -3.62126923 
Au       2.66225461       0.00000000       0.95481374 
Au      -2.66225461       0.00000000       0.95481374 
Au       3.86203063       0.00000000      -1.40597663 
Au      -3.86203063       0.00000000      -1.40597663 
Au       1.28231148      -0.00000000      -1.24684652 
Au      -1.28231148      -0.00000000      -1.24684652 
