20
-1553.048988
Au      -0.00000000       0.00000000      -4.64982509 
Au      -0.00000000       0.00000000      -1.89980562 
Au       0.00000000       1.40344961       4.60605329 
Au       0.00000000      -1.40344961       4.60605329 
Au       0.00000000       2.25195571      -0.60979607 
Au      -0.00000000      -2.25195571      -0.60979607 
Au      -0.00000000      -2.21343456      -3.26405389 
Au       0.00000001       2.21343456      -3.26405389 
Au      -0.00000000      -1.95106873       1.97674662 
Au      -0.00000000       1.95106873       1.97674662 
Au      -2.20840535      -0.00000001      -3.29132687 
Au       2.20840535       0.00000001      -3.29132687 
Au       3.65229244      -0.00000000       1.54874014 
Au      -3.65229244       0.00000000       1.54874014 
Au       1.28587946      -0.00000000       0.36594537 
Au      -1.28587947       0.00000000       0.36594537 
Au       3.50764643       0.00000000      -1.04613868 
Au      -3.50764643      -0.00000000      -1.04613868 
Au      -1.48061328       0.00000000       2.98864545 
Au       1.48061328       0.00000000       2.98864545 
