20
-1551.619152
Au      -0.00000000      -0.00000000      -5.54267177 
Au      -0.00000000      -0.00000000      -0.51875381 
Au      -0.00000000       2.18174328       0.99364866 
Au      -0.00000000      -2.18174328       0.99364866 
Au      -0.00000000      -2.14421564      -4.14483541 
Au      -0.00000000       2.14421564      -4.14483541 
Au       0.00000000      -2.35328936      -1.59329137 
Au       0.00000000       2.35328936      -1.59329137 
Au      -1.28861329      -0.00000000       4.33686415 
Au       1.28861329      -0.00000000       4.33686415 
Au      -3.92906896      -0.00000000       1.46169573 
Au       3.92906896      -0.00000000       1.46169573 
Au       1.28417819       0.00000000      -3.03785039 
Au      -1.28417819       0.00000000      -3.03785039 
Au      -2.59252775      -0.00000000      -0.75455283 
Au       2.59252775      -0.00000000      -0.75455283 
Au       1.30860408       0.00000000       1.71859315 
Au      -1.30860408      -0.00000000       1.71859315 
Au      -3.86195889      -0.00000000       4.05044111 
Au       3.86195889      -0.00000000       4.05044111 
