20
-1551.148592
Au       0.00000000       0.00000000       3.01226665 
Au       0.00000000      -0.00000000      -1.53706797 
Au      -0.00000000       1.31188888      -3.82343706 
Au      -0.00000000      -1.31188888      -3.82343706 
Au      -0.00000000       3.48210527      -5.20002219 
Au      -0.00000000      -3.48210527      -5.20002219 
Au      -2.60465830       0.00000000       3.04183131 
Au       2.60465830       0.00000000       3.04183132 
Au       4.63170229       0.00000000       1.45844540 
Au      -4.63170229      -0.00000000       1.45844540 
Au      -2.12989858      -0.00000000      -3.05039570 
Au       2.12989858      -0.00000000      -3.05039571 
Au      -4.70526549      -0.00000000      -3.07391167 
Au       4.70526549       0.00000000      -3.07391167 
Au       1.29993693       0.00000000       0.74637955 
Au      -1.29993693       0.00000000       0.74637955 
Au      -3.40944443      -0.00000000      -0.80472471 
Au       3.40944443      -0.00000000      -0.80472471 
Au      -1.30046604       0.00000000       5.29085355 
Au       1.30046604       0.00000000       5.29085354 
