20
-1544.773777
Au      -5.05304304      -5.05307290       4.19174489 
Au       5.05290916       5.05291229       4.19260160 
Au       4.12301701      -4.12758645       1.64576906 
Au      -4.12762056       4.12282504       1.64599015 
Au       3.44752172       3.44752061       3.00337501 
Au      -3.44708214      -3.44705925       3.00415814 
Au      -4.70188137       4.70184328      -0.79663829 
Au       4.70196474      -4.70199802      -0.79687446 
Au      -2.41509715      -2.41501003       0.86253419 
Au       2.41568329       2.41565846       0.86158040 
Au       2.91607765      -2.91259697      -0.32068598 
Au      -2.91231562       2.91602916      -0.32064453 
Au      -0.92248892      -0.92216789       5.59947348 
Au       0.92352746       0.92380298       5.59867861 
Au       0.92442273      -0.92398979       3.73536319 
Au      -0.92422920       0.92470008       3.73557610 
Au       1.60194400       1.60179611       3.18031259 
Au      -1.60147774      -1.60155530       3.18155248 
Au      -2.33651243       2.33454229       2.12068666 
Au       2.33468042      -2.33659371       2.12067352 
