20
-1552.449509
Au       0.00000000      -0.00000000      -1.33179927 
Au       0.00000000       0.00000000       3.18343581 
Au      -1.29324630       0.00000000       0.94092314 
Au       1.29324630       0.00000000       0.94092314 
Au      -1.29735789       0.00000000      -6.15084512 
Au       1.29735789       0.00000000      -6.15084512 
Au      -5.23139438       0.00000000       3.13782082 
Au       5.23139438      -0.00000000       3.13782082 
Au      -2.62437756      -0.00000000      -1.32446836 
Au       2.62437756      -0.00000000      -1.32446836 
Au       2.63533289       0.00000000       3.25775644 
Au      -2.63533289      -0.00000000       3.25775644 
Au       3.86063171       0.00000000      -3.62938872 
Au      -3.86063171      -0.00000000      -3.62938872 
Au      -3.89871815       0.00000000       0.91409223 
Au       3.89871815       0.00000000       0.91409223 
Au      -1.29322031      -0.00000000       5.49881024 
Au       1.29322031       0.00000000       5.49881024 
Au      -1.28185124      -0.00000000      -3.57051894 
Au       1.28185124      -0.00000000      -3.57051894 
