20
-1550.843107
Au       0.00000000       0.00000000      -2.83443184 
Au       0.00000000       0.00000000       4.34249059 
Au      -4.81863077      -0.00000000       2.95334107 
Au       4.81863077       0.00000000       2.95334107 
Au      -5.54984915      -0.00000000      -3.36566359 
Au       5.54984915      -0.00000000      -3.36566359 
Au      -1.30800088       0.00000000       2.04791101 
Au       1.30800088      -0.00000000       2.04791101 
Au      -2.22855130      -0.00000000      -4.20509025 
Au       2.22855130      -0.00000000      -4.20509025 
Au      -3.40575457       0.00000000      -1.92403535 
Au       3.40575457       0.00000000      -1.92403535 
Au      -5.73252471       0.00000000      -0.74563938 
Au       5.73252471       0.00000000      -0.74563938 
Au      -2.60189394      -0.00000000       4.30937975 
Au       2.60189394      -0.00000000       4.30937975 
Au       1.27464350       0.00000000      -0.51597209 
Au      -1.27464350       0.00000000      -0.51597209 
Au       3.55288703      -0.00000000       0.69173945 
Au      -3.55288703       0.00000000       0.69173945 
