20
-1549.169824
Au       0.00000000      -3.48368324      -3.60948630 
Au      -0.00000000       3.48368231      -3.60948537 
Au      -0.00000000       1.29641020       5.21306263 
Au       0.00000000      -1.29640352       5.21303810 
Au       0.00000000      -5.80099763      -2.32685311 
Au      -0.00000000       5.80099956      -2.32685413 
Au       0.00000000       1.28838644      -2.25201224 
Au      -0.00000000      -1.28838621      -2.25201667 
Au       0.00000000      -5.70704743      -4.91229484 
Au      -0.00000000       5.70704523      -4.91229587 
Au       0.00000000      -3.53785924      -0.99925502 
Au      -0.00000000       3.53786160      -0.99925507 
Au       0.00000000       5.88270821       2.86501634 
Au      -0.00000000      -5.88271315       2.86501708 
Au       0.00000000       3.58190227       1.59144121 
Au       0.00000000      -3.58190282       1.59144294 
Au       0.00000000      -5.82209630       0.25315688 
Au      -0.00000000       5.82209812       0.25315575 
Au      -0.00000000      -3.65363552       4.17723924 
Au       0.00000000       3.65363112       4.17723847 
