20
-1553.031473
Au      -0.00000000      -3.58912875      -3.16602301 
Au       0.00000000       3.58912875      -3.16602301 
Au      -0.00000000       5.84732187       0.75962742 
Au       0.00000000      -5.84732187       0.75962742 
Au      -0.00000000       5.81882602      -1.83137979 
Au       0.00000000      -5.81882602      -1.83137979 
Au       0.00000000       3.61132444       2.10610294 
Au       0.00000000      -3.61132444       2.10610294 
Au       0.00000000      -3.55812872      -0.51006894 
Au       0.00000000       3.55812872      -0.51006894 
Au       0.00000000       1.30209922       3.39548342 
Au       0.00000000      -1.30209922       3.39548342 
Au       0.00000000       1.30470421       0.77997666 
Au       0.00000000      -1.30470421       0.77997666 
Au      -0.00000000       1.32032909      -1.81146123 
Au       0.00000000      -1.32032909      -1.81146123 
Au      -0.00000000       1.29672859      -4.41356730 
Au      -0.00000000      -1.29672859      -4.41356730 
Au       0.00000000       3.56288083       4.69130982 
Au      -0.00000000      -3.56288083       4.69130982 
