20
-1553.755614
Au      -0.00000000      -0.00000000       2.17615790 
Au       0.00000000      -0.00000000       6.63421538 
Au       0.00000000      -3.91768205      -0.19755563 
Au       0.00000000       3.91768206      -0.19755563 
Au      -0.00000000      -1.36446340       4.42032815 
Au       0.00000000       1.36446340       4.42032815 
Au       0.00000000      -1.30829449      -0.18979231 
Au       0.00000000       1.30829448      -0.18979231 
Au       0.00000000       1.32494330      -2.94311891 
Au      -0.00000000      -1.32494329      -2.94311891 
Au       0.00000000      -3.94379761      -2.87117747 
Au      -0.00000000       3.94379761      -2.87117747 
Au      -0.00000000      -2.64037974       2.12176002 
Au       0.00000000       2.64037974       2.12176002 
Au       1.86691079      -0.00000000      -1.60630226 
Au      -1.86691079      -0.00000000      -1.60630226 
Au      -1.85356731       2.62485411      -1.56966411 
Au       1.85356731      -2.62485411      -1.56966411 
Au      -1.85356731      -2.62485411      -1.56966411 
Au       1.85356731       2.62485411      -1.56966411 
