20
-1547.449101
Au       0.00000000      -0.00000000       3.46913374 
Au      -0.00000000      -0.00000000      -1.04944833 
Au       0.00000000      -2.56196333      -1.04700045 
Au      -0.00000000       2.56196333      -1.04700045 
Au       0.00000000       5.81867143      -4.94233242 
Au      -0.00000000      -5.81867143      -4.94233242 
Au      -0.00000000       1.30190154       1.20563504 
Au      -0.00000000      -1.30190154       1.20563504 
Au      -0.00000000       3.88322388      -3.27001852 
Au       0.00000000      -3.88322388      -3.27001852 
Au      -0.00000000      -1.29278252      -3.30434535 
Au      -0.00000000       1.29278252      -3.30434535 
Au       0.00000000       5.23640597       2.46965551 
Au      -0.00000000      -5.23640597       2.46965551 
Au       1.33772268       0.00000000       5.69846752 
Au      -1.33772268      -0.00000000       5.69846752 
Au       1.31109183      -3.55390051       0.99004799 
Au      -1.31109183       3.55390051       0.99004799 
Au       1.31109183       3.55390051       0.99004799 
Au      -1.31109183      -3.55390051       0.99004799 
