20
-1551.039607
Au      -0.00000001       0.00000000      -1.90529623 
Au      -0.00000000      -0.00000000      -4.50541348 
Au       0.00000000       3.24150835      -1.35978845 
Au       0.00000000      -3.24150836      -1.35978845 
Au       0.00000000       1.31948714       2.87471552 
Au       0.00000000      -1.31948714       2.87471552 
Au       0.00000000      -3.66451009       1.28378815 
Au       0.00000000       3.66451009       1.28378815 
Au      -0.00000000      -5.20950063       5.97547449 
Au      -0.00000000       5.20950063       5.97547449 
Au       0.00000000      -3.70814050       3.88868980 
Au       0.00000000       3.70814050       3.88868979 
Au      -0.00000000       1.27687506       0.31072652 
Au      -0.00000000      -1.27687506       0.31072653 
Au       3.05703065      -0.00000000      -3.34050344 
Au      -3.05703064      -0.00000000      -3.34050344 
Au       1.29844448      -1.90031167      -3.21387387 
Au      -1.29844448       1.90031168      -3.21387387 
Au       1.29844448       1.90031167      -3.21387387 
Au      -1.29844448      -1.90031168      -3.21387387 
