20
-1549.039125
Au       1.30270910       1.30270905       1.39198420 
Au      -1.30270903      -1.30270908       1.39198417 
Au      -1.30270897       1.30270898       1.39198401 
Au       1.30270899      -1.30270898       1.39198403 
Au       2.94966372       2.94966372      -2.56450597 
Au      -2.94966372      -2.94966372      -2.56450596 
Au      -2.94966370       2.94966370      -2.56450594 
Au       2.94966371      -2.94966371      -2.56450596 
Au       2.94995956       2.94995956       2.56439540 
Au      -2.94995957      -2.94995957       2.56439541 
Au      -2.94995958       2.94995958       2.56439543 
Au       2.94995958      -2.94995958       2.56439542 
Au      -2.88038981      -2.88038981      -0.00008918 
Au       2.88038981       2.88038981      -0.00008917 
Au       2.88038981      -2.88038981      -0.00008918 
Au      -2.88038981       2.88038981      -0.00008921 
Au       1.30268846       1.30268846      -1.39178429 
Au      -1.30268848      -1.30268848      -1.39178432 
Au      -1.30268859       1.30268858      -1.39178452 
Au       1.30268852      -1.30268853      -1.39178443 
