20
-1551.916316
Au       0.00000000      -0.00000000      -2.53007217 
Au       0.00000000       0.00000000       0.09936201 
Au       0.00000000      -1.28526384       2.37388815 
Au       0.00000000       1.28526384       2.37388815 
Au      -0.00000000      -2.59128722      -2.54081064 
Au      -0.00000000       2.59128722      -2.54081064 
Au      -0.00000000       3.90575829       2.38765888 
Au       0.00000000      -3.90575829       2.38765888 
Au      -0.00000000       2.59294744       4.62864686 
Au      -0.00000000      -2.59294744       4.62864686 
Au      -0.00000000       1.30893485      -4.83384612 
Au      -0.00000000      -1.30893485      -4.83384612 
Au       0.00000000      -2.72856188       0.07876135 
Au       0.00000000       2.72856188       0.07876135 
Au       2.27008946      -0.00000000       1.32883475 
Au      -2.27008946      -0.00000000       1.32883475 
Au      -1.93426384       1.31117426      -1.10388909 
Au       1.93426384      -1.31117426      -1.10388909 
Au      -1.93426384      -1.31117426      -1.10388909 
Au       1.93426384       1.31117426      -1.10388909 
