20
-1553.108309
Au      -0.00000000      -0.00000000      -3.62086844 
Au      -0.00000000       0.00000000      -6.29343301 
Au       0.00000000      -2.61056643      -3.57950030 
Au      -0.00000000       2.61056643      -3.57950030 
Au       0.00000000       1.31061470       5.12197411 
Au      -0.00000000      -1.31061470       5.12197411 
Au      -0.00000000      -1.30143200      -1.34448246 
Au       0.00000000       1.30143200      -1.34448246 
Au      -0.00000000      -3.38834989       3.46892828 
Au       0.00000000       3.38834989       3.46892828 
Au       0.00000000       2.56459959      -6.16125319 
Au      -0.00000000      -2.56459959      -6.16125319 
Au       0.00000000      -2.39991305       1.00966989 
Au      -0.00000000       2.39991305       1.00966989 
Au       1.30138999       0.00000000       0.61260920 
Au      -1.30138999      -0.00000000       0.61260920 
Au      -1.44055455       1.29680989       2.91460260 
Au       1.44055455      -1.29680989       2.91460260 
Au      -1.44055455      -1.29680989       2.91460260 
Au       1.44055455       1.29680989       2.91460260 
