20
-1552.512237
Au       0.00000000      -0.00000000      -4.14899273 
Au       0.00000000       0.00000000      -1.50245799 
Au      -0.00000000      -3.61022127       2.09187949 
Au       0.00000000       3.61022127       2.09187949 
Au      -0.00000000       1.31002299       3.36093769 
Au       0.00000000      -1.31002299       3.36093769 
Au      -0.00000000      -3.59898132      -0.53547609 
Au       0.00000000       3.59898132      -0.53547609 
Au      -0.00000000      -2.26700914      -2.80661181 
Au       0.00000000       2.26700914      -2.80661181 
Au       0.00000000       1.30996592       0.74561657 
Au      -0.00000000      -1.30996592       0.74561657 
Au      -3.32019924       0.00000000      -0.03659907 
Au       3.32019924      -0.00000000      -0.03659907 
Au      -1.96952164       0.00000000       2.18335502 
Au       1.96952164      -0.00000000       2.18335502 
Au       1.97433047      -1.95544564      -1.08868823 
Au      -1.97433047       1.95544564      -1.08868823 
Au       1.97433047       1.95544564      -1.08868823 
Au      -1.97433047      -1.95544564      -1.08868823 
