20
-1554.364084
Au       0.00000000       0.00000000      -2.46873937 
Au       0.00000000       0.00000000       4.00049409 
Au       0.00000000      -2.15988223       2.53308625 
Au       0.00000000       2.15988223       2.53308625 
Au      -0.00000000      -4.16472615      -1.95354921 
Au      -0.00000000       4.16472615      -1.95354921 
Au      -0.00000000      -3.93120746       0.63985000 
Au      -0.00000000       3.93120746       0.63985000 
Au       0.00000000       1.40360952      -0.12490510 
Au       0.00000000      -1.40360952      -0.12490510 
Au      -2.17655835      -0.00000000      -0.75250564 
Au       2.17655835       0.00000000      -0.75250564 
Au      -2.48845976       0.00000000      -3.36322944 
Au       2.48845976      -0.00000000      -3.36322944 
Au      -1.35841259       0.00000000       1.74977932 
Au       1.35841259       0.00000000       1.74977932 
Au       1.64011405       2.16454938      -2.17686166 
Au      -1.64011405      -2.16454938      -2.17686166 
Au       1.64011405      -2.16454938      -2.17686166 
Au      -1.64011405       2.16454938      -2.17686166 
