20
-1551.375554
Au       0.00000000       0.00000001      -1.34733801 
Au      -0.00000000      -0.00000000       2.79033026 
Au      -0.00000000      -2.12287385      -2.85417096 
Au       0.00000000       2.12287386      -2.85417097 
Au       0.00000000       2.01318541       1.10996897 
Au      -0.00000000      -2.01318541       1.10996898 
Au       0.00000000       2.49633352       3.66486240 
Au       0.00000000      -2.49633352       3.66486241 
Au       0.00000000       3.73500775      -0.83818239 
Au      -0.00000000      -3.73500775      -0.83818238 
Au       3.78464557       0.00000000      -4.37471183 
Au      -3.78464557       0.00000000      -4.37471183 
Au       1.30953225       0.00000000      -3.66087615 
Au      -1.30953225       0.00000000      -3.66087615 
Au      -1.66300394      -0.00000000       0.65637557 
Au       1.66300394      -0.00000000       0.65637557 
Au       2.20877049      -1.40089035       2.78761913 
Au      -2.20877049       1.40089034       2.78761912 
Au       2.20877049       1.40089034       2.78761912 
Au      -2.20877049      -1.40089035       2.78761913 
