20
-1554.016208
Au       0.00000000       0.00000000       3.75616005 
Au       0.00000000       0.00000000      -0.24453317 
Au      -0.00000000      -1.29836900      -4.62009615 
Au       0.00000000       1.29836900      -4.62009615 
Au      -0.00000000       3.42986500      -3.09929636 
Au      -0.00000000      -3.42986500      -3.09929636 
Au      -0.00000000       1.83783358       1.87105717 
Au      -0.00000000      -1.83783358       1.87105716 
Au       0.00000000       2.75415541      -0.55944751 
Au       0.00000000      -2.75415540      -0.55944751 
Au      -1.90639067       0.00000000       1.95648065 
Au       1.90639067       0.00000000       1.95648065 
Au      -3.51553937       0.00000000      -2.98294772 
Au       3.51553937       0.00000000      -2.98294772 
Au      -2.76747672      -0.00000000      -0.48240076 
Au       2.76747672      -0.00000000      -0.48240076 
Au      -1.35174342       1.32042791      -2.32139432 
Au       1.35174342      -1.32042791      -2.32139433 
Au      -1.35174342      -1.32042791      -2.32139433 
Au       1.35174342       1.32042791      -2.32139432 
