20
-1549.729217
Au       4.07272589      -0.00211158      -1.31636029 
Au      -4.07272589       0.00211158      -1.31636029 
Au      -0.00231751       4.11817623      -1.29722086 
Au       0.00231751      -4.11817623      -1.29722086 
Au      -4.11792229       0.00209361       1.29745972 
Au       4.11792229      -0.00209361       1.29745972 
Au       0.00241444      -4.07327161       1.31659883 
Au      -0.00241444       4.07327161       1.31659883 
Au      -1.81205472       0.00035345      -2.63464312 
Au       1.81205472      -0.00035345      -2.63464312 
Au      -0.00014284      -1.90550494      -2.69862150 
Au       0.00014284       1.90550494      -2.69862150 
Au       1.84536230      -0.00019099       0.03621126 
Au      -1.84536230       0.00019099       0.03621126 
Au       0.00021575       1.84584349      -0.03597961 
Au      -0.00021575      -1.84584350      -0.03597961 
Au       1.90538579      -0.00023963       2.69867229 
Au      -1.90538579       0.00023964       2.69867229 
Au       0.00039068       1.81188527       2.63388328 
Au      -0.00039068      -1.81188527       2.63388328 
