20
-1552.578575
Au      -0.00000000      -0.00000000       3.68426874 
Au       0.00000000       0.00000000       0.07477381 
Au       0.00000000       1.81141755      -1.92253102 
Au       0.00000000      -1.81141755      -1.92253102 
Au       0.00000000       1.96427641       1.88743610 
Au       0.00000000      -1.96427641       1.88743610 
Au       4.50902304      -0.00000000       2.45441229 
Au      -4.50902304      -0.00000000       2.45441229 
Au      -3.69234575      -0.00000000       0.00032297 
Au       3.69234575      -0.00000000       0.00032297 
Au       1.90775492       0.00000000      -1.85978264 
Au      -1.90775492       0.00000000      -1.85978264 
Au       1.27981711      -0.00000000      -4.35034494 
Au      -1.27981711      -0.00000000      -4.35034494 
Au      -1.93616822       0.00000000       1.94833268 
Au       1.93616822       0.00000000       1.94833268 
Au      -1.84192218       1.94199308      -0.01868336 
Au       1.84192218      -1.94199308      -0.01868336 
Au      -1.84192218      -1.94199308      -0.01868336 
Au       1.84192218       1.94199308      -0.01868336 
