20
-1551.698414
Au       0.00000000      -0.00000000      -2.79636436 
Au       0.00000000       0.00000000       1.16549065 
Au       0.00000000       2.11520524       2.67881019 
Au       0.00000000      -2.11520524       2.67881019 
Au       1.28531691       0.00000000       3.63346913 
Au      -1.28531691       0.00000000       3.63346913 
Au      -3.90888852       0.00000000      -0.80455883 
Au       3.90888852       0.00000000      -0.80455883 
Au       3.87811888      -0.00000000       3.65519497 
Au      -3.87811888      -0.00000000       3.65519497 
Au       1.29310504       0.00000000      -5.19010288 
Au      -1.29310504       0.00000000      -5.19010288 
Au      -2.60946460      -0.00000000       1.39069051 
Au       2.60946460      -0.00000000       1.39069051 
Au       2.58731200      -0.00000000      -2.96947653 
Au      -2.58731200      -0.00000000      -2.96947653 
Au       1.36749487       1.29296728      -0.78929486 
Au      -1.36749487      -1.29296728      -0.78929486 
Au       1.36749487      -1.29296728      -0.78929486 
Au      -1.36749487       1.29296728      -0.78929486 
