20
-1550.104063
Au       0.00000000      -0.00000000       3.14730123 
Au      -0.00000000      -0.00000000      -4.18784175 
Au      -0.00000000       2.12729924       1.63478424 
Au      -0.00000000      -2.12729924       1.63478424 
Au       3.55128077       0.00000000      -0.53238950 
Au      -3.55128077       0.00000000      -0.53238950 
Au       1.31957943       0.00000000       0.77955921 
Au      -1.31957943       0.00000000       0.77955921 
Au      -4.81617886       0.00000000       1.73869134 
Au       4.81617886       0.00000000       1.73869134 
Au       2.59833826       0.00000000       3.07308671 
Au      -2.59833826      -0.00000000       3.07308671 
Au       1.34404181       0.00000000      -1.94444844 
Au      -1.34404182       0.00000000      -1.94444845 
Au      -3.86334888      -0.00000000      -3.08958622 
Au       3.86334888      -0.00000000      -3.08958622 
Au      -1.40954857       2.24828839      -0.56971354 
Au       1.40954858      -2.24828840      -0.56971354 
Au      -1.40954857      -2.24828840      -0.56971354 
Au       1.40954857       2.24828840      -0.56971354 
