20
-1551.265371
Au      -0.00000002       0.00000000       2.09898627 
Au       0.00001344      -0.00000000      -0.52976882 
Au       2.33667762       0.00000000       3.31570829 
Au      -2.33667780       0.00000000       3.31570757 
Au       4.49207963       0.00000000      -0.74367658 
Au      -4.49207797      -0.00000000      -0.74367750 
Au      -4.60593955       0.00000000       1.86443662 
Au       4.60594090      -0.00000000       1.86443742 
Au      -2.17028764      -0.00000000      -1.88483971 
Au       2.17027670      -0.00000000      -1.88482855 
Au      -2.25855645       0.00000000       0.71239624 
Au       2.25855013      -0.00000000       0.71238964 
Au      -3.86644700      -0.00000000      -3.83801675 
Au       3.86645000       0.00000000      -3.83801999 
Au       1.29576996      -0.00000000      -4.31435144 
Au      -1.29577162      -0.00000000      -4.31434922 
Au      -3.12459048      -2.13643396       2.05186656 
Au       3.12459032       2.13643419       2.05186671 
Au      -3.12459048       2.13643396       2.05186656 
Au       3.12459032      -2.13643419       2.05186671 
