20
-1551.922574
Au       0.00000000       1.29818005      -4.29690342 
Au      -0.00000000      -1.29818005      -4.29690342 
Au       0.00000000       3.53410662       4.83900155 
Au      -0.00000000      -3.53410662       4.83900155 
Au      -0.00000000      -3.61855574      -0.34766048 
Au       0.00000000       3.61855574      -0.34766048 
Au       0.00000000      -3.54060987      -3.00616377 
Au       0.00000000       3.54060987      -3.00616377 
Au      -0.00000000      -3.60132684       2.25169636 
Au       0.00000000       3.60132684       2.25169636 
Au      -0.00000000      -5.79976976      -1.76447836 
Au       0.00000000       5.79976976      -1.76447836 
Au      -0.00000000      -1.29031722      -1.69564058 
Au       0.00000000       1.29031722      -1.69564058 
Au      -0.00000000       1.29008561       3.51822177 
Au      -0.00000000      -1.29008561       3.51822177 
Au      -0.00000000      -1.31107580       0.89567614 
Au       0.00000000       1.31107580       0.89567614 
Au      -1.93381902       0.00000000      -0.39374921 
Au       1.93381902      -0.00000000      -0.39374921 
