20
-1549.254818
Au       1.83552231       0.00000000      -0.19467233 
Au      -1.83552231       0.00000000      -0.19467232 
Au      -0.00000000       1.83552231      -0.19467232 
Au      -0.00000000      -1.83552231      -0.19467233 
Au      -4.49761922       0.00000000      -0.19958468 
Au       4.49761922       0.00000000      -0.19958468 
Au      -0.00000000      -4.49761922      -0.19958468 
Au      -0.00000000       4.49761922      -0.19958468 
Au       1.85229763      -0.00000000      -2.80124222 
Au      -1.85229763      -0.00000000      -2.80124222 
Au       0.00000000       1.85229763      -2.80124222 
Au       0.00000000      -1.85229763      -2.80124222 
Au      -1.32343512       3.15062702       1.59774961 
Au       1.32343512      -3.15062702       1.59774961 
Au      -3.15062702      -1.32343512       1.59774961 
Au       3.15062702       1.32343512       1.59774961 
Au      -1.32343512      -3.15062702       1.59774961 
Au       1.32343512       3.15062702       1.59774961 
Au      -3.15062702       1.32343512       1.59774961 
Au       3.15062702      -1.32343512       1.59774961 
