20
-1553.214181
Au       0.00000000      -1.30349000      -3.70839024 
Au       0.00000000       1.30349000      -3.70839024 
Au      -0.00000000      -1.33890878       1.55538775 
Au      -0.00000000       1.33890878       1.55538775 
Au       0.00000000      -3.64525297       0.25861087 
Au      -0.00000000       3.64525297       0.25861087 
Au       0.00000000      -3.58934050      -4.93816019 
Au       0.00000000       3.58934050      -4.93816019 
Au       0.00000000      -3.60874653       2.88269596 
Au      -0.00000000       3.60874653       2.88269596 
Au      -0.00000000       1.32371506       4.20404429 
Au       0.00000000      -1.32371506       4.20404429 
Au       0.00000000      -3.62375877      -2.34628772 
Au       0.00000000       3.62375877      -2.34628772 
Au       0.00000000      -1.31400576      -1.07330667 
Au      -0.00000000       1.31400576      -1.07330667 
Au       1.90450505       0.00000000       0.27770809 
Au      -1.90450505       0.00000000       0.27770809 
Au      -1.86739064      -0.00000000       2.88769787 
Au       1.86739064       0.00000000       2.88769787 
