20
-1552.032323
Au       0.00000015       3.87652994       0.78709364 
Au       0.00000015      -3.87652994       0.78709365 
Au      -0.00000073      -1.28029357      -3.86103489 
Au      -0.00000073       1.28029357      -3.86103489 
Au       0.00000006       5.08624586      -1.52211916 
Au       0.00000006      -5.08624586      -1.52211916 
Au      -0.00000023      -1.28429189       5.25645214 
Au      -0.00000023       1.28429188       5.25645213 
Au       0.00000034       2.49956137      -1.59199431 
Au       0.00000034      -2.49956137      -1.59199431 
Au       0.00000005      -3.89140833      -3.83350110 
Au       0.00000005       3.89140833      -3.83350110 
Au      -0.00000044      -1.26653224       0.63698021 
Au      -0.00000044       1.26653224       0.63698021 
Au       0.00000021      -2.40098287       2.94215224 
Au       0.00000021       2.40098287       2.94215224 
Au       1.27400513       0.00000000      -1.54204125 
Au      -1.27400413       0.00000000      -1.54204306 
Au       1.28365817       0.00000000       2.72801310 
Au      -1.28365799       0.00000000       2.72801366 
