20
-1554.257775
Au      -0.00000000       1.34006027       1.30285749 
Au       0.00000000      -1.34006027       1.30285749 
Au      -0.00000000      -3.71773034       0.00035442 
Au       0.00000000       3.71773034       0.00035442 
Au       0.00000000       3.60769504      -2.61315387 
Au      -0.00000000      -3.60769504      -2.61315387 
Au       0.00000000      -1.33211216      -3.93965709 
Au      -0.00000000       1.33211216      -3.93965709 
Au      -0.00000000       1.34007098      -1.30274621 
Au       0.00000000      -1.34007098      -1.30274621 
Au      -0.00000000       1.33170019       3.93964474 
Au       0.00000000      -1.33170019       3.93964474 
Au      -0.00000000      -3.60767992       2.61387029 
Au       0.00000000       3.60767992       2.61387029 
Au       1.88619928      -0.00000000      -2.63229158 
Au      -1.88619928      -0.00000000      -2.63229158 
Au       1.88646041       0.00000000       2.63154643 
Au      -1.88646041      -0.00000000       2.63154643 
Au      -1.95772115      -0.00000000      -0.00042462 
Au       1.95772115       0.00000000      -0.00042462 
