20
-1553.042783
Au       0.00000000      -1.31536074       4.36324536 
Au       0.00000000       1.31536074       4.36324536 
Au       0.00000000      -3.60904971      -2.21894903 
Au       0.00000000       3.60904971      -2.21894903 
Au       0.00000000      -1.33356902      -3.54887967 
Au       0.00000000       1.33356902      -3.54887967 
Au       0.00000000      -3.56596795       3.01815125 
Au       0.00000000       3.56596795       3.01815125 
Au       0.00000000      -3.69054716       0.40702090 
Au      -0.00000000       3.69054716       0.40702090 
Au      -0.00000000       1.35051485      -0.90470421 
Au      -0.00000000      -1.35051485      -0.90470421 
Au      -0.00000000      -1.31550295       1.72075212 
Au      -0.00000000       1.31550295       1.72075212 
Au       1.90542828       0.00000000       0.40264518 
Au      -1.90542828      -0.00000000       0.40264518 
Au       4.11113501       0.00000000      -0.95148408 
Au      -4.11113501      -0.00000000      -0.95148408 
Au       1.89255495      -0.00000000      -2.28779783 
Au      -1.89255495      -0.00000000      -2.28779783 
