20
-1552.489716
Au       0.00000000       1.90619952      -2.44529010 
Au       0.00000000      -1.90619952      -2.44529010 
Au      -0.00000000       1.30715751       3.43025814 
Au      -0.00000000      -1.30715751       3.43025814 
Au       0.00000000       1.81959583      -5.06354565 
Au       0.00000000      -1.81959583      -5.06354565 
Au      -0.00000000       3.62951929       2.17764372 
Au      -0.00000000      -3.62951929       2.17764372 
Au      -0.00000000       3.53199372       4.77256768 
Au      -0.00000000      -3.53199372       4.77256768 
Au       0.00000000      -1.98649876       0.16806279 
Au       0.00000000       1.98649876       0.16806279 
Au      -1.32052923      -0.00000000       1.55261405 
Au       1.32052923      -0.00000000       1.55261405 
Au       1.31638908       0.00000000      -3.72389021 
Au      -1.31638908       0.00000000      -3.72389021 
Au      -1.30481784       0.00000000      -1.08226057 
Au       1.30481784       0.00000000      -1.08226057 
Au      -3.54474789      -0.00000000       0.21384015 
Au       3.54474789      -0.00000000       0.21384015 
