20
-1551.263548
Au      -0.00000000       2.08863815       2.70916342 
Au      -0.00000000      -2.08863815       2.70916342 
Au      -0.00000000       1.39862129      -2.49122148 
Au      -0.00000000      -1.39862129      -2.49122148 
Au       0.00000000       4.31195887       1.40800462 
Au       0.00000000      -4.31195887       1.40800462 
Au      -0.00000000      -1.30671770       0.17056921 
Au      -0.00000000       1.30671770       0.17056921 
Au      -0.00000000      -3.58243871      -1.07356535 
Au      -0.00000000       3.58243871      -1.07356535 
Au      -1.39058412       0.00000000      -4.18195490 
Au       1.39058412       0.00000000      -4.18195490 
Au       2.06750520       0.00000000      -1.58608618 
Au      -2.06750520       0.00000000      -1.58608618 
Au      -4.38088319       0.00000000      -0.39310319 
Au       4.38088319      -0.00000000      -0.39310319 
Au      -1.34023460       0.00000000       3.49098665 
Au       1.34023460       0.00000000       3.49098665 
Au       2.20044687       0.00000000       1.04567927 
Au      -2.20044687       0.00000000       1.04567927 
