20
-1552.55609
Au       0.00000411       1.30453676       1.05299028 
Au       0.00000411      -1.30453676       1.05299028 
Au       0.00000029      -1.64027129       3.66957518 
Au       0.00000029       1.64027129       3.66957518 
Au      -0.00000031      -1.29836941      -3.71184073 
Au      -0.00000031       1.29836941      -3.71184073 
Au      -0.00000104       2.33690326      -1.33511296 
Au      -0.00000104      -2.33690326      -1.33511296 
Au      -1.31223149      -0.00000000       5.24294898 
Au       1.31222982       0.00000000       5.24295123 
Au       2.24209472      -0.00000000      -4.14834112 
Au      -2.24209524       0.00000000      -4.14834186 
Au      -1.29299729       0.00000000      -1.66070524 
Au       1.29299543      -0.00000000      -1.66070482 
Au       2.98884720      -0.00000000       0.34861051 
Au      -2.98885054       0.00000000       0.34860949 
Au      -1.76323866      -0.00000000       2.64715586 
Au       1.76324140       0.00000000       2.64715967 
Au       3.87024835      -0.00000000      -2.10528234 
Au      -3.87024982       0.00000000      -2.10528387 
