20
-1551.86897
Au      -0.00000000      -1.92798468       2.49491164 
Au      -0.00000000       1.92798468       2.49491164 
Au      -0.00000000       1.96244107      -0.14800303 
Au       0.00000000      -1.96244107      -0.14800303 
Au      -0.00000000      -4.38337375      -1.05995865 
Au       0.00000000       4.38337375      -1.05995865 
Au       3.59552870       0.00000000       2.41630837 
Au      -3.59552870      -0.00000000       2.41630837 
Au      -1.31288926       0.00000000       3.74035226 
Au       1.31288926       0.00000000       3.74035226 
Au      -1.30015296       0.00000000       1.12874194 
Au       1.30015296      -0.00000000       1.12874194 
Au      -3.59545679      -0.00000000      -0.19425604 
Au       3.59545679       0.00000000      -0.19425604 
Au      -1.30149812       0.00000000      -4.08878922 
Au       1.30149812       0.00000000      -4.08878922 
Au      -3.58168056       0.00000000      -2.79714513 
Au       3.58168056       0.00000000      -2.79714513 
Au       1.29927602       0.00000000      -1.49216215 
Au      -1.29927602      -0.00000000      -1.49216215 
