20
-1553.177031
Au       0.00000000       1.81726325      -0.66185983 
Au       0.00000000      -1.81726325      -0.66185983 
Au      -0.00000000      -1.60805862       1.97134801 
Au      -0.00000000       1.60805862       1.97134801 
Au       0.00000000      -1.33899577       4.56152575 
Au      -0.00000000       1.33899577       4.56152575 
Au      -1.33525882       0.00000000      -2.11045202 
Au       1.33525882       0.00000000      -2.11045202 
Au      -3.77121395       0.00000000      -0.91846539 
Au       3.77121395       0.00000000      -0.91846539 
Au       3.56879093      -0.00000000      -3.49574375 
Au      -3.56879093      -0.00000000      -3.49574375 
Au      -1.81143076      -0.00000000       3.21119902 
Au       1.81143076      -0.00000000       3.21119902 
Au       1.53555897       0.00000000       0.52027994 
Au      -1.53555897       0.00000000       0.52027994 
Au      -3.91035792       0.00000000       1.67246281 
Au       3.91035792       0.00000000       1.67246281 
Au      -1.29979532      -0.00000000      -4.75029453 
Au       1.29979532      -0.00000000      -4.75029453 
