20
-1553.546726
Au      -0.00000000       1.84448723      -3.04260361 
Au      -0.00000000      -1.84448723      -3.04260361 
Au      -0.00000000      -1.90634296      -0.42478598 
Au      -0.00000000       1.90634296      -0.42478598 
Au       0.00000000      -1.86669373       2.21158041 
Au       0.00000000       1.86669373       2.21158041 
Au       1.33744730      -0.00000000       0.88947685 
Au      -1.33744730       0.00000000       0.88947685 
Au       3.60234694      -0.00000000       4.81098336 
Au      -3.60234694       0.00000000       4.81098336 
Au       3.67202248      -0.00000000      -0.35511218 
Au      -3.67202248      -0.00000000      -0.35511218 
Au      -1.31803947       0.00000000       3.57230849 
Au       1.31803947      -0.00000000       3.57230849 
Au      -1.32730451       0.00000000      -4.36506815 
Au       1.32730451       0.00000000      -4.36506815 
Au       3.63877358      -0.00000000       2.23031133 
Au      -3.63877358      -0.00000000       2.23031133 
Au       1.41946954       0.00000000      -1.74144437 
Au      -1.41946954       0.00000000      -1.74144437 
