20
-1553.261349
Au       0.00000000       1.83659621      -1.86762751 
Au       0.00000000      -1.83659621      -1.86762751 
Au      -0.00000000      -1.89795413       0.74866996 
Au      -0.00000000       1.89795413       0.74866996 
Au       1.32015109      -0.00000000       2.10300851 
Au      -1.32015109      -0.00000000       2.10300851 
Au       3.66369891       0.00000000      -1.79958917 
Au      -3.66369891       0.00000000      -1.79958917 
Au      -1.30259320      -0.00000000       4.72932566 
Au       1.30259320      -0.00000000       4.72932566 
Au      -3.57742705      -0.00000000       3.42789377 
Au       3.57742705      -0.00000000       3.42789377 
Au       1.33122599       0.00000000      -3.23300711 
Au      -1.33122599       0.00000000      -3.23300711 
Au      -3.65718141      -0.00000000       0.81513411 
Au       3.65718141      -0.00000000       0.81513411 
Au      -3.65043845       0.00000000      -4.39576496 
Au       3.65043845       0.00000000      -4.39576496 
Au       1.34489948       0.00000000      -0.52804326 
Au      -1.34489948      -0.00000000      -0.52804326 
