20
-1552.659573
Au      -0.00000192      -1.31324515      -1.22385370 
Au      -0.00000192       1.31324515      -1.22385370 
Au      -0.00003851       1.30392754       1.37826294 
Au      -0.00003851      -1.30392754       1.37826294 
Au      -2.25662020       0.00000000      -0.65880957 
Au       2.25662546      -0.00000000      -0.65879127 
Au      -1.30195403       0.00000000      -3.10247152 
Au       1.30195744      -0.00000000      -3.10246056 
Au       3.35549493      -0.00000000       1.69824273 
Au      -3.35543385       0.00000000       1.69823426 
Au       3.86335603       0.00000000      -2.78876832 
Au      -3.86335119      -0.00000000      -2.78876389 
Au       3.68427701       0.00000000       4.27114566 
Au      -3.68430718      -0.00000000       4.27112341 
Au       4.89403664      -0.00000000      -0.38306428 
Au      -4.89401209       0.00000000      -0.38304671 
Au      -6.42598255      -0.00000000      -2.48042806 
Au       6.42599251       0.00000000      -2.48045349 
Au      -1.29204509      -0.00000000       3.28977334 
Au       1.29204704       0.00000000       3.28971978 
