20
-1550.638124
Au       0.00000002      -1.43246123      -2.62901004 
Au       0.00000002       1.43246123      -2.62901004 
Au       3.61363363      -0.00000000       0.45800921 
Au      -3.61363366      -0.00000000       0.45800919 
Au       4.20338545       0.00000000      -4.64429871 
Au      -4.20338543       0.00000000      -4.64429875 
Au       1.31239097      -0.00000000       1.72970527 
Au      -1.31239096      -0.00000000       1.72970521 
Au      -1.71270382       0.00000000      -3.96080710 
Au       1.71270380       0.00000000      -3.96080716 
Au       5.48299086      -0.00000000       4.72222567 
Au      -5.48299083       0.00000000       4.72222564 
Au      -1.28308645      -0.00000000       4.32035439 
Au       1.28308650      -0.00000000       4.32035445 
Au       1.29730594       0.00000000      -0.85247325 
Au      -1.29730599      -0.00000000      -0.85247332 
Au       3.58808037       0.00000000      -2.12917674 
Au      -3.58808045      -0.00000000      -2.12917676 
Au      -3.53833285      -0.00000000       3.05352724 
Au       3.53833288      -0.00000000       3.05352726 
