20
-1551.627313
Au      -1.83010985      -0.00004796      -2.15828540 
Au       1.83010985       0.00004796      -2.15828540 
Au      -0.00005037      -1.83010409      -2.15828462 
Au       0.00005037       1.83010409      -2.15828462 
Au      -1.84246081       0.00003855       0.62766470 
Au       1.84246081      -0.00003855       0.62766470 
Au       0.00004066      -1.84245563       0.62765461 
Au      -0.00004066       1.84245563       0.62765461 
Au       2.22461271       2.22461068      -0.89672654 
Au      -2.22461271      -2.22461068      -0.89672654 
Au      -2.22459364       2.22459210      -0.89664010 
Au       2.22459364      -2.22459210      -0.89664010 
Au      -3.67576080      -1.78234109       1.21368360 
Au       3.67576080       1.78234109       1.21368360 
Au       1.78228770      -3.67570293       1.21362530 
Au      -1.78228770       3.67570293       1.21362530 
Au      -3.67568793       1.78231063       1.21362641 
Au       3.67568793      -1.78231063       1.21362641 
Au       1.78231723       3.67577481       1.21368207 
Au      -1.78231723      -3.67577481       1.21368207 
