20
-1552.23283
Au      -0.00000000       1.85219412       1.49262487 
Au      -0.00000000      -1.85219412       1.49262487 
Au       1.32269064      -0.00000000       0.13511500 
Au      -1.32269064      -0.00000000       0.13511500 
Au       5.86504831      -0.00000000       0.06438876 
Au      -5.86504831       0.00000000       0.06438876 
Au       3.62338086      -0.00000000       4.04606137 
Au      -3.62338086       0.00000000       4.04606137 
Au       3.57024158      -0.00000000      -1.17139382 
Au      -3.57024158       0.00000000      -1.17139382 
Au       1.34742907       0.00000000       2.79713693 
Au      -1.34742907       0.00000000       2.79713693 
Au      -1.30965591       0.00000000      -2.48603757 
Au       1.30965591      -0.00000000      -2.48603757 
Au      -3.66129488       0.00000000       1.45088950 
Au       3.66129488      -0.00000000       1.45088950 
Au       5.81368193       0.00000000      -2.53177899 
Au      -5.81368193      -0.00000000      -2.53177899 
Au       3.54923770       0.00000000      -3.79700604 
Au      -3.54923770      -0.00000000      -3.79700604 
