20
-1552.110241
Au      -0.00000000       1.89346181      -1.97715999 
Au      -0.00000000      -1.89346181      -1.97715999 
Au       1.29305237      -0.00000000       4.56236070 
Au      -1.29305237       0.00000000       4.56236070 
Au      -1.30702501       0.00000000      -3.26536359 
Au       1.30702501       0.00000000      -3.26536359 
Au      -5.79079769       0.00000000       1.99024027 
Au       5.79079769      -0.00000000       1.99024027 
Au      -1.28554998       0.00000000       1.95949576 
Au       1.28554998      -0.00000000       1.95949576 
Au       3.58825934      -0.00000000       0.62602167 
Au      -3.58825934      -0.00000000       0.62602167 
Au       1.30639635       0.00000000      -0.62475155 
Au      -1.30639635       0.00000000      -0.62475155 
Au      -3.55220454       0.00000000      -4.56734737 
Au       3.55220454      -0.00000000      -4.56734737 
Au       3.53645540      -0.00000000       3.26851008 
Au      -3.53645540       0.00000000       3.26851008 
Au      -3.62859786       0.00000000      -1.97200596 
Au       3.62859786      -0.00000000      -1.97200596 
