20
-1551.357655
Au       1.31461554      -0.00000000      -0.24451853 
Au      -1.31461554      -0.00000000      -0.24451853 
Au      -3.55918091      -0.00000000       1.05222068 
Au       3.55918091      -0.00000000       1.05222068 
Au       3.56505876      -0.00000000      -1.52884469 
Au      -3.56505876       0.00000000      -1.52884469 
Au      -1.29729836      -0.00000000       2.38400153 
Au       1.29729836       0.00000000       2.38400153 
Au       3.55726375       0.00000000      -4.19092856 
Au      -3.55726375       0.00000000      -4.19092856 
Au       1.30338886       0.00000000      -2.84602456 
Au      -1.30338886       0.00000000      -2.84602456 
Au      -5.78786455       0.00000000       2.35810190 
Au       5.78786455      -0.00000000       2.35810190 
Au       1.30077600       0.00000000      -5.48678715 
Au      -1.30077600       0.00000000      -5.48678715 
Au       3.54955924       0.00000000       3.67481275 
Au      -3.54955924      -0.00000000       3.67481275 
Au       5.78128248      -0.00000000      -2.86097500 
Au      -5.78128248      -0.00000000      -2.86097500 
