20
-1553.957533
Au       0.00000000      -0.00000000      -1.18474469 
Au      -0.00000000       0.00000033       2.71041509 
Au      -0.00000000       5.18660961       2.51366668 
Au      -0.00000000      -5.18660938       2.51366664 
Au       0.00000000       1.30200012      -3.51843051 
Au       0.00000000      -1.30200012      -3.51843051 
Au       0.00000000      -3.89099434      -3.25406423 
Au       0.00000000       3.89099433      -3.25406422 
Au      -0.00000000      -3.70902900       0.36095074 
Au      -0.00000000       3.70902898       0.36095060 
Au       0.00000000       2.59734240       2.73047161 
Au       0.00000000      -2.59734294       2.73047157 
Au      -1.32840822       2.44087577      -1.53269215 
Au       1.32840823      -2.44087575      -1.53269214 
Au      -1.32840823      -2.44087575      -1.53269214 
Au       1.32840822       2.44087577      -1.53269215 
Au       1.33620585       1.32306168       0.82248452 
Au      -1.33620588      -1.32306169       0.82248447 
Au       1.33620588      -1.32306169       0.82248447 
Au      -1.33620585       1.32306168       0.82248452 
