20
-1553.713933
Au       0.00000005      -0.00688046       0.89047405 
Au       0.00000003       0.00521442      -1.80617447 
Au       0.00000118       2.70106716      -1.83732088 
Au      -0.00000117      -2.68251529      -1.81993925 
Au      -0.00000209       1.30682911       3.30056326 
Au       0.00000212      -1.31207230       3.30675801 
Au      -0.00000029      -4.86888519      -0.40058735 
Au       0.00000022       4.86900615      -0.38976246 
Au      -0.00000079      -1.30837512      -4.06427835 
Au       0.00000073       1.30915791      -4.06947042 
Au      -0.00000054       2.59893997       0.88803264 
Au       0.00000055      -2.61064461       0.89768687 
Au       1.96213524      -1.32517746      -0.64939887 
Au      -1.95938737       1.34181425      -0.65820233 
Au       1.95938741       1.34181252      -0.65820000 
Au      -1.96213530      -1.32517569      -0.64939666 
Au       2.19224962      -1.32870922       1.93429828 
Au      -2.19120865       1.31165151       1.92530714 
Au       2.19120615       1.31165159       1.92530994 
Au      -2.19224709      -1.32870927       1.93430085 
