20
-1551.05167
Au       0.00000000       3.59587525      -0.89371383 
Au       0.00000000      -3.59587526      -0.89371380 
Au       0.00000000       1.31892346      -2.17254832 
Au       0.00000000      -1.31892351      -2.17254843 
Au       0.00000000       1.30161475      -4.76247035 
Au       0.00000000      -1.30161476      -4.76247034 
Au      -0.00000000      -1.29719557       3.05745192 
Au       0.00000000       1.29719559       3.05745187 
Au      -0.00000000      -1.30701007       0.44164923 
Au      -0.00000000       1.30701005       0.44164939 
Au       0.00000000       3.58591402       4.27309359 
Au      -0.00000000      -3.58591408       4.27309359 
Au      -0.00000000       3.60087391       1.69814814 
Au       0.00000000      -3.60087381       1.69814817 
Au      -0.00000000      -3.61564118      -3.53999686 
Au      -0.00000000       3.61564119      -3.53999687 
Au      -2.13629063      -2.90440205      -2.23959250 
Au       2.13629062       2.90440206      -2.23959249 
Au      -2.13629062       2.90440206      -2.23959249 
Au       2.13629063      -2.90440205      -2.23959250 
