20
-1549.976112
Au       0.00000000       1.28968451       2.02413305 
Au      -0.00000000      -1.28968451       2.02413305 
Au      -0.00000000      -1.29610975      -5.92575471 
Au       0.00000000       1.29610975      -5.92575471 
Au      -0.00000000      -3.53470772       0.66815323 
Au       0.00000000       3.53470772       0.66815323 
Au       0.00000000      -1.29396623      -0.72545344 
Au      -0.00000000       1.29396623      -0.72545344 
Au       0.00000000      -3.60480545      -1.94281751 
Au      -0.00000000       3.60480545      -1.94281751 
Au       0.00000000      -1.34898522      -3.33256412 
Au      -0.00000000       1.34898522      -3.33256412 
Au       0.00000000      -1.30691327       4.63131887 
Au       0.00000000       1.30691327       4.63131887 
Au       0.00000000       3.57131315       3.29312168 
Au       0.00000000      -3.57131315       3.29312168 
Au      -2.21379601       1.29406096       0.65493146 
Au       2.21379601      -1.29406096       0.65493146 
Au      -2.21379601      -1.29406096       0.65493146 
Au       2.21379601       1.29406096       0.65493146 
