20
-1551.662819
Au       0.00000000       0.00000000      -3.78530122 
Au       0.00000000       0.00000000      -1.22893975 
Au       0.00000000       1.29274563       1.02518050 
Au       0.00000000      -1.29274563       1.02518050 
Au       0.00000000      -3.79274860       0.17204331 
Au      -0.00000000       3.79274860       0.17204331 
Au      -0.00000000      -2.92942373      -2.27272558 
Au      -0.00000000       2.92942373      -2.27272558 
Au       0.00000000       1.29957327       3.66378912 
Au       0.00000000      -1.29957327       3.66378912 
Au      -2.27149460      -0.00000000      -0.02919578 
Au       2.27149460      -0.00000000      -0.02919578 
Au      -2.00504890      -1.29101428      -2.36555041 
Au       2.00504890       1.29101428      -2.36555041 
Au      -2.00504890       1.29101428      -2.36555041 
Au       2.00504890      -1.29101428      -2.36555041 
Au       1.32130121      -3.14399229       2.33956486 
Au      -1.32130121       3.14399229       2.33956486 
Au       1.32130121       3.14399229       2.33956486 
Au      -1.32130121      -3.14399229       2.33956486 
