20
-1555.680568
Au       0.00000000       0.00018123       3.33389753 
Au      -0.00000000      -0.00014251      -0.12570727 
Au       0.00000007      -2.54546540       0.70823444 
Au      -0.00000007       2.54525819       0.70837570 
Au       0.00000065       2.61888977       3.32868896 
Au      -0.00000065      -2.61865036       3.32855134 
Au      -0.00000010       1.33883649      -4.36847213 
Au       0.00000010      -1.33874798      -4.36854697 
Au      -0.00000043       2.16536724      -1.86890628 
Au       0.00000043      -2.16547621      -1.86909493 
Au       1.37411428      -0.00000525      -2.57022275 
Au      -1.37411428      -0.00000546      -2.57022275 
Au       1.93810992      -1.32866681       2.09019365 
Au      -1.93823979       1.32901665       2.09053594 
Au       1.93823993       1.32901556       2.09053520 
Au      -1.93811006      -1.32866572       2.09019292 
Au      -2.19206101      -1.41658965      -0.50713445 
Au       2.19209408       1.41621993      -0.50688245 
Au      -2.19209453       1.41621894      -0.50688186 
Au       2.19206146      -1.41658865      -0.50713386 
