20
-1552.95631
Au      -0.00000002       0.00000004      -1.93961410 
Au       0.00000001       0.00000000       2.90575270 
Au       0.00000000       2.49359261       3.64594137 
Au       0.00000000      -2.49359261       3.64594138 
Au      -0.00000000      -2.18669734       1.05526659 
Au      -0.00000000       2.18669733       1.05526657 
Au       0.00000003       1.33799781      -4.17542551 
Au       0.00000003      -1.33799779      -4.17542548 
Au      -3.81225387      -0.00000001       1.01850369 
Au       3.81225387      -0.00000000       1.01850367 
Au      -1.30365919      -0.00000000       0.36898310 
Au       1.30365918      -0.00000000       0.36898309 
Au       2.18484359       1.38473850       2.58864496 
Au      -2.18484359      -1.38473851       2.58864497 
Au       2.18484359      -1.38473850       2.58864496 
Au      -2.18484359       1.38473850       2.58864496 
Au      -2.60605218       2.24643198       0.16431069 
Au       2.60605217      -2.24643200       0.16431068 
Au      -2.60605218      -2.24643200       0.16431070 
Au       2.60605217       2.24643198       0.16431068 
