20
-1553.345388
Au       0.00001371       0.00000006      -3.13474411 
Au       0.00001024      -0.00000001      -5.75334695 
Au      -0.00000547      -3.31079264       0.88993662 
Au      -0.00000532       3.31079269       0.88993671 
Au       0.00000184      -1.69272874      -1.16634705 
Au       0.00000234       1.69272865      -1.16634721 
Au      -2.06284455       0.00000012      -1.56335180 
Au       2.06285498      -0.00000011      -1.56334891 
Au       1.47132240       0.00000003       3.01198216 
Au      -1.47133517      -0.00000004       3.01197744 
Au       2.25668475       0.00000004      -4.32543036 
Au      -2.25666367      -0.00000005      -4.32543174 
Au      -1.30922021       2.60365221       3.04883689 
Au       1.30920709      -2.60365307       3.04883709 
Au      -1.30922009      -2.60365200       3.04883725 
Au       1.30920693       2.60365287       3.04883742 
Au       1.77783843      -1.33586688       0.74979466 
Au      -1.77784334       1.33586535       0.74978884 
Au       1.77783868       1.33586693       0.74979444 
Au      -1.77784357      -1.33586541       0.74978857 
