20
-1551.799014
Au       0.00000000       0.00000000      -1.78128609 
Au       0.00000000       0.00000000      -4.42798545 
Au       2.24864601      -0.00000000      -3.09074369 
Au      -2.24864601       0.00000000      -3.09074369 
Au      -3.53823859       0.00000000      -0.84414941 
Au       3.53823859      -0.00000000      -0.84414941 
Au       3.54882466       0.00000000       1.77650050 
Au      -3.54882466      -0.00000000       1.77650050 
Au      -1.30680281       0.00000000       3.12010291 
Au       1.30680281      -0.00000000       3.12010291 
Au      -1.28904076       0.00000000       0.47124637 
Au       1.28904076      -0.00000000       0.47124637 
Au      -1.34513831      -2.27131340       1.75459308 
Au       1.34513831       2.27131340       1.75459308 
Au      -1.34513831       2.27131340       1.75459308 
Au       1.34513831      -2.27131340       1.75459308 
Au       1.32158364      -2.20939191      -0.91875355 
Au      -1.32158364       2.20939191      -0.91875355 
Au       1.32158364       2.20939191      -0.91875355 
Au      -1.32158364      -2.20939191      -0.91875355 
