20
-1550.854979
Au      -1.85046454       0.00000000       2.67226471 
Au       1.85046454      -0.00000000       2.67226471 
Au      -0.00000000      -1.85046454       2.67226471 
Au       0.00000000       1.85046454       2.67226471 
Au      -1.96931484       0.00000000      -0.01150898 
Au       1.96931484       0.00000000      -0.01150898 
Au       0.00000000      -1.96931484      -0.01150898 
Au       0.00000000       1.96931484      -0.01150898 
Au       2.23842673       2.23842673       1.36364846 
Au      -2.23842673      -2.23842673       1.36364846 
Au      -2.23842673       2.23842673       1.36364846 
Au       2.23842673      -2.23842673       1.36364846 
Au      -1.29615025      -3.12229786      -2.01220209 
Au       1.29615025       3.12229786      -2.01220209 
Au       3.12229786      -1.29615025      -2.01220209 
Au      -3.12229786       1.29615025      -2.01220209 
Au      -1.29615025       3.12229786      -2.01220209 
Au       1.29615025      -3.12229786      -2.01220209 
Au       3.12229786       1.29615025      -2.01220209 
Au      -3.12229786      -1.29615025      -2.01220209 
