20
-1551.946492
Au      -0.00000000      -0.00000000       4.93211545 
Au      -0.00000000       0.00000000      -4.93169894 
Au       1.33834280      -0.00000000      -2.70064344 
Au      -1.33834280       0.00000000      -2.70064344 
Au      -3.54823663       0.00000000      -1.30703279 
Au       3.54823663      -0.00000000      -1.30703279 
Au      -1.29725313      -0.00000000      -0.00014111 
Au       1.29725313      -0.00000000      -0.00014111 
Au       1.33802858       0.00000000       2.70088873 
Au      -1.33802858      -0.00000000       2.70088873 
Au      -3.54775473      -0.00000000       1.30704975 
Au       3.54775473       0.00000000       1.30704975 
Au      -1.34060477       2.26062086       1.32145665 
Au       1.34060477      -2.26062086       1.32145665 
Au      -1.34060477      -2.26062086       1.32145665 
Au       1.34060477       2.26062086       1.32145665 
Au       1.34050370      -2.26085646      -1.32162134 
Au      -1.34050370       2.26085646      -1.32162134 
Au       1.34050370       2.26085646      -1.32162134 
Au      -1.34050370      -2.26085646      -1.32162134 
