20
-1550.635412
Au      -0.00000000      -1.32739798      -0.23807091 
Au      -0.00000000       1.32739798      -0.23807091 
Au       0.00000000       3.55631186      -4.17772294 
Au      -0.00000000      -3.55631186      -4.17772294 
Au       0.00000000       3.63415729      -1.60011960 
Au       0.00000000      -3.63415729      -1.60011960 
Au      -0.00000000       3.63759535       0.98063759 
Au       0.00000000      -3.63759535       0.98063759 
Au      -0.00000000       1.44142502       2.37787566 
Au      -0.00000000      -1.44142502       2.37787566 
Au      -0.00000000       1.31403622       4.96105318 
Au       0.00000000      -1.31403622       4.96105318 
Au      -0.00000000      -1.30049940      -2.87636386 
Au      -0.00000000       1.30049940      -2.87636386 
Au       1.95536518      -0.00000000      -1.35936316 
Au      -1.95536518       0.00000000      -1.35936316 
Au       2.31580341       1.33790195       0.96603702 
Au      -2.31580341      -1.33790195       0.96603702 
Au       2.31580341      -1.33790195       0.96603702 
Au      -2.31580341       1.33790195       0.96603702 
