20
-1553.182775
Au      -0.00000000       4.01827864       0.16564239 
Au       0.00000000      -4.01827864       0.16564239 
Au      -0.00000000       1.32651747      -0.02064713 
Au      -0.00000000      -1.32651747      -0.02064713 
Au      -0.00000000      -3.90875895      -2.41989890 
Au      -0.00000000       3.90875895      -2.41989889 
Au       0.00000000       1.30227859       2.73407432 
Au       0.00000000      -1.30227859       2.73407432 
Au      -0.00000000       3.91330442       2.77698911 
Au       0.00000000      -3.91330442       2.77698911 
Au       0.00000000      -1.30541131      -2.69808536 
Au      -0.00000000       1.30541130      -2.69808536 
Au      -0.00000000      -2.85880320      -4.79031402 
Au       0.00000000       2.85880320      -4.79031402 
Au      -1.89654268       0.00000000       1.42204038 
Au       1.89654268       0.00000000       1.42204038 
Au       1.84571175      -2.62173263       1.41509960 
Au      -1.84571175       2.62173263       1.41509960 
Au       1.84571175       2.62173263       1.41509960 
Au      -1.84571175      -2.62173263       1.41509960 
