20
-1551.642426
Au      -0.00000000       3.56993774       2.08845342 
Au       0.00000000      -3.56993774       2.08845342 
Au      -0.00000000      -3.69369510      -0.49150514 
Au       0.00000000       3.69369510      -0.49150514 
Au       0.00000000      -1.33111588       3.39499312 
Au      -0.00000000       1.33111588       3.39499312 
Au      -0.00000000       1.33860504       0.74690551 
Au       0.00000000      -1.33860504       0.74690551 
Au       0.00000000       1.32030459      -4.44657526 
Au      -0.00000000      -1.32030459      -4.44657526 
Au       0.00000000       1.41968160      -1.84013264 
Au      -0.00000000      -1.41968160      -1.84013264 
Au       1.99802464      -0.00000000      -0.41645959 
Au      -1.99802464       0.00000000      -0.41645959 
Au       1.83855900      -0.00000000      -3.06829277 
Au      -1.83855900       0.00000000      -3.06829277 
Au       2.27567495       1.32975274       2.01630667 
Au      -2.27567495      -1.32975274       2.01630667 
Au       2.27567495      -1.32975274       2.01630667 
Au      -2.27567495       1.32975274       2.01630667 
