20
-1550.198835
Au      -0.00000002      -1.31209797      -1.98165075 
Au       0.00000004       1.31209797      -1.98165075 
Au       0.00000016      -2.89921131       1.82973156 
Au       0.00000025       2.89921132       1.82973157 
Au       0.00000016       3.62720387      -3.27260585 
Au       0.00000026      -3.62720387      -3.27260585 
Au       0.00000012       1.32205268      -4.63830582 
Au       0.00000016      -1.32205268      -4.63830582 
Au       0.00000015       3.60234254      -5.85897149 
Au       0.00000013      -3.60234254      -5.85897149 
Au      -0.00000230      -3.54443139      -0.67795973 
Au      -0.00000233       3.54443139      -0.67795973 
Au       1.85465897      -0.00000000      -3.31549551 
Au      -1.85465887       0.00000000      -3.31549574 
Au      -1.30361188      -0.00000013       5.61323899 
Au       1.30358674       0.00000013       5.61322709 
Au       1.31888825      -1.30764126       3.37739792 
Au      -1.31887412       1.30764143       3.37740976 
Au       1.31888867       1.30764156       3.37739796 
Au      -1.31887454      -1.30764173       3.37740980 
