20
-1553.125801
Au      -0.00000000       1.83434946      -1.31022744 
Au       0.00000000      -1.83434946      -1.31022744 
Au      -0.00000000       1.90573450      -3.92497281 
Au       0.00000000      -1.90573450      -3.92497281 
Au      -0.00000000      -1.61805343       1.30984910 
Au       0.00000000       1.61805343       1.30984910 
Au       0.00000000       1.35187025       3.92847677 
Au      -0.00000000      -1.35187025       3.92847677 
Au      -0.00000000       4.04015708       0.15663720 
Au       0.00000000      -4.04015708       0.15663720 
Au      -1.34341487      -0.00000000      -2.74007960 
Au       1.34341487       0.00000000      -2.74007960 
Au       1.76486339      -0.00000000       2.51835937 
Au      -1.76486339       0.00000000       2.51835937 
Au      -1.75405496      -0.00000000      -0.12714924 
Au       1.75405496       0.00000000      -0.12714924 
Au      -2.14984953      -2.57816672       0.09455332 
Au       2.14984953       2.57816672       0.09455332 
Au      -2.14984953       2.57816672       0.09455332 
Au       2.14984953      -2.57816672       0.09455332 
