20
-1552.351316
Au       0.00000215      -2.19466060       3.36874346 
Au       0.00000217       2.19466580       3.36874021 
Au      -0.00000108       3.23799117      -0.92415345 
Au      -0.00000112      -3.23799889      -0.92413632 
Au      -0.00000284       3.99749752       1.53832313 
Au      -0.00000282      -3.99749821       1.53831325 
Au      -0.00000215       1.30858852       0.88716368 
Au      -0.00000214      -1.30858956       0.88716362 
Au      -1.32304041      -0.00000107       3.78112841 
Au       1.32304262      -0.00000109       3.78113181 
Au      -2.79363973      -0.00000173      -3.23813490 
Au       2.79363750      -0.00000171      -3.23813780 
Au      -2.24869305      -0.00000008       1.35567860 
Au       2.24869212      -0.00000006       1.35568618 
Au      -1.30981884       0.00000943      -1.08543194 
Au       1.30978464       0.00000949      -1.08546244 
Au       1.33729402       2.10652397      -2.84165506 
Au      -1.33728958      -2.10651255      -2.84165272 
Au       1.33731103      -2.10652839      -2.84166770 
Au      -1.33727249       2.10650805      -2.84164005 
