20
-1554.009292
Au      -0.00000000      -1.32934505       2.36314555 
Au       0.00000000       1.32934505       2.36314555 
Au       0.00000000      -1.32767932      -2.40934769 
Au      -0.00000000       1.32767932      -2.40934769 
Au       0.00000000       3.43903412      -0.88315593 
Au       0.00000000      -3.43903412      -0.88315593 
Au      -2.32540145       0.00000000       1.97786337 
Au       2.32540145       0.00000000       1.97786337 
Au       2.25682715       0.00000000      -2.42809477 
Au      -2.25682715      -0.00000000      -2.42809477 
Au       3.66236066       0.00000000      -0.24127879 
Au      -3.66236066       0.00000000      -0.24127879 
Au       1.29212049      -0.00000000       4.33715048 
Au      -1.29212049      -0.00000000       4.33715048 
Au       4.87309332       0.00000000      -2.53735982 
Au      -4.87309332      -0.00000000      -2.53735982 
Au       1.35160148      -1.34443363      -0.08946120 
Au      -1.35160148       1.34443363      -0.08946120 
Au       1.35160148       1.34443363      -0.08946120 
Au      -1.35160148      -1.34443363      -0.08946120 
