20
-1551.914427
Au       0.00000000      -2.16624677      -2.59827986 
Au      -0.00000000       2.16624677      -2.59827986 
Au      -0.00000000       2.00829611       1.99007885 
Au       0.00000000      -2.00829611       1.99007885 
Au       3.75358391       0.00000000      -2.95931477 
Au      -3.75358391       0.00000000      -2.95931477 
Au      -1.34288263      -0.00000000      -1.93028860 
Au       1.34288263       0.00000000      -1.93028860 
Au       3.57885566      -0.00000000      -0.38928765 
Au      -3.57885566       0.00000000      -0.38928765 
Au      -1.29327967      -0.00000000       3.48237469 
Au       1.29327967       0.00000000       3.48237469 
Au      -1.32035205       0.00000000       0.88367736 
Au       1.32035205       0.00000000       0.88367736 
Au       3.60074045      -0.00000000       2.21817083 
Au      -3.60074045      -0.00000000       2.21817083 
Au       1.33704173       2.30880082      -0.34856541 
Au      -1.33704173      -2.30880082      -0.34856541 
Au       1.33704173      -2.30880082      -0.34856541 
Au      -1.33704173       2.30880082      -0.34856541 
