20
-1551.830198
Au       0.00000003       1.43180708      -2.01245942 
Au      -0.00000003      -1.43180708      -2.01245942 
Au       0.00000002       2.00419329       2.38180581 
Au      -0.00000000      -2.00419329       2.38180581 
Au       1.32481662      -0.00000001       1.26005226 
Au      -1.32481660       0.00000001       1.26005225 
Au      -3.56113407      -0.00000015       2.58221712 
Au       3.56113406       0.00000014       2.58221716 
Au      -1.28720591      -0.00000006       3.84987719 
Au       1.28720589       0.00000006       3.84987718 
Au      -1.30681435       0.00000004      -3.79864293 
Au       1.30681434      -0.00000005      -3.79864295 
Au      -2.16291705       0.00000004      -1.20344254 
Au       2.16291705      -0.00000004      -1.20344255 
Au      -3.83112476       0.00000000      -3.19808019 
Au       3.83112475       0.00000000      -3.19808021 
Au      -1.34267298      -2.32942551       0.06933633 
Au       1.34267298       2.32942551       0.06933633 
Au      -1.34267286       2.32942552       0.06933635 
Au       1.34267286      -2.32942553       0.06933635 
