20
-1552.366152
Au       0.00000330       1.95525468      -1.09161613 
Au       0.00000295      -1.95525470      -1.09161616 
Au       5.02600423       0.00000013       2.76815071 
Au      -5.02607609      -0.00000018       2.76815784 
Au       2.79817512      -0.00000270      -4.55990105 
Au      -2.79809169       0.00000275      -4.55981321 
Au       3.94682978       0.00000221      -2.22640767 
Au      -3.94677925      -0.00000220      -2.22637016 
Au      -1.32171130      -0.00000124      -2.38339593 
Au       1.32171349       0.00000124      -2.38351664 
Au      -3.94773271       0.00000246       0.37934509 
Au       3.94774674      -0.00000250       0.37933898 
Au       2.45351077       0.00000114       2.56278497 
Au      -2.45362691      -0.00000102       2.56286418 
Au       1.28535652      -0.00000147       0.26125361 
Au      -1.28537402       0.00000142       0.26131097 
Au       2.61868316      -1.90033143      -0.98763169 
Au      -2.61865862       1.90032634      -0.98755012 
Au       2.61868330       1.90033169      -0.98762542 
Au      -2.61865876      -1.90032663      -0.98754393 
