20
-1550.610802
Au       0.00000000      -0.00000000      -2.15198586 
Au      -0.00000000       0.00000000       0.60760509 
Au       0.00000000       1.31150805       4.18492462 
Au       0.00000000      -1.31150805       4.18492462 
Au       0.00000000       2.36411092       1.81034139 
Au       0.00000000      -2.36411092       1.81034139 
Au      -0.00000000       2.31486085      -0.84976568 
Au      -0.00000000      -2.31486085      -0.84976568 
Au       1.31129109       2.06684006      -3.08879424 
Au      -1.31129109      -2.06684006      -3.08879424 
Au       1.31129109      -2.06684006      -3.08879424 
Au      -1.31129109       2.06684006      -3.08879424 
Au      -1.62604927       3.88807338       0.42409505 
Au       1.62604927      -3.88807338       0.42409505 
Au      -1.62604927      -3.88807338       0.42409505 
Au       1.62604927       3.88807338       0.42409505 
Au      -2.23465764      -1.33519675       0.47804421 
Au       2.23465764       1.33519675       0.47804421 
Au      -2.23465764       1.33519675       0.47804421 
Au       2.23465764      -1.33519675       0.47804421 
