20
-1551.874621
Au      -0.00000000      -5.76677996      -0.00049002 
Au      -0.00000000       5.76677996      -0.00049002 
Au      -0.00000000      -1.32106252       2.67520955 
Au       0.00000000       1.32106252       2.67520955 
Au       0.00000000       3.56429788      -1.34821583 
Au      -0.00000000      -3.56429788      -1.34821583 
Au      -0.00000000       3.56450724       1.34773476 
Au       0.00000000      -3.56450724       1.34773476 
Au       0.00000000       1.32073809      -2.67507091 
Au      -0.00000000      -1.32073809      -2.67507091 
Au       0.00000000       1.32965741       0.00013692 
Au      -0.00000000      -1.32965741       0.00013692 
Au      -2.26765489       1.33447447       1.32417618 
Au       2.26765489      -1.33447447       1.32417618 
Au      -2.26765489      -1.33447447       1.32417618 
Au       2.26765489       1.33447447       1.32417618 
Au      -2.26772366       1.33438220      -1.32382840 
Au       2.26772366      -1.33438220      -1.32382840 
Au      -2.26772366      -1.33438220      -1.32382840 
Au       2.26772366       1.33438220      -1.32382840 
