20
-1551.504715
Au      -0.00000001      -1.31279828      -0.76660352 
Au       0.00000001       1.31148282      -0.76992878 
Au       0.00000000       1.36516067      -3.37352469 
Au      -0.00000000      -1.36365367      -3.37037041 
Au       0.00000000      -3.66126539       0.43431308 
Au      -0.00000000       3.65983827       0.43234654 
Au      -0.00000000       1.30360350       1.81928639 
Au       0.00000000      -1.30440114       1.82276028 
Au       0.00000000      -3.58356685       3.06288354 
Au      -0.00000000       3.58188369       3.06090779 
Au       0.00000000      -1.32768822       4.43184863 
Au      -0.00000000       1.32506572       4.42828756 
Au       2.58821495       1.30445169      -0.85873680 
Au      -2.58805141      -1.30102323      -0.86382058 
Au       2.58805140      -1.30102322      -0.86382057 
Au      -2.58821493       1.30445168      -0.85873679 
Au      -1.29147725       3.28219502      -1.94250708 
Au       1.29150309      -3.28245404      -1.94103874 
Au      -1.29150310      -3.28245404      -1.94103874 
Au       1.29147725       3.28219503      -1.94250708 
