20
-1551.621529
Au      -0.00000007      -1.29579953       0.38925101 
Au       0.00000004       1.29579748       0.38925066 
Au       0.00000125       3.55732138      -0.88793672 
Au      -0.00000123      -3.55732250      -0.88793761 
Au       0.00000038       1.30173979       3.03805028 
Au      -0.00000043      -1.30174275       3.03805024 
Au       0.00000252      -3.54888181       1.71045039 
Au      -0.00000232       3.54887906       1.71045115 
Au       0.00000024      -1.30657659      -2.33184931 
Au      -0.00000026       1.30657660      -2.33184960 
Au      -0.00000005       3.68927606      -3.45619116 
Au       0.00000004      -3.68927546      -3.45619204 
Au       2.27854591       1.32446240       1.70591968 
Au      -2.27854622      -1.32445689       1.70591961 
Au       2.27854562      -1.32446051       1.70592040 
Au      -2.27854538       1.32446601       1.70592045 
Au      -2.26621075      -1.32054902      -0.93680724 
Au       2.26621090       1.32054765      -0.93680720 
Au      -2.26621126       1.32054563      -0.93680648 
Au       2.26621106      -1.32054700      -0.93680649 
