20
-1551.437164
Au      -0.00000000      -3.62117866       1.41031279 
Au       0.00000000       3.62117866       1.41031279 
Au       0.00000000      -3.49334667      -1.19998249 
Au      -0.00000000       3.49334667      -1.19998249 
Au      -0.00000000       3.66996099       3.98296700 
Au       0.00000000      -3.66996099       3.98296700 
Au       0.00000000       2.80037364      -3.75365716 
Au      -0.00000000      -2.80037364      -3.75365716 
Au      -0.00000000      -1.28960989       0.25858906 
Au       0.00000000       1.28960989       0.25858906 
Au      -0.00000000       1.30783563       2.88348285 
Au       0.00000000      -1.30783563       2.88348285 
Au      -1.33196934       1.33770850      -2.00046596 
Au       1.33196934      -1.33770850      -2.00046596 
Au      -1.33196934      -1.33770850      -2.00046596 
Au       1.33196934       1.33770850      -2.00046596 
Au       2.37486433      -1.90556434      -4.30904491 
Au      -2.37486433       1.90556434      -4.30904491 
Au       2.37486433       1.90556434      -4.30904491 
Au      -2.37486433      -1.90556434      -4.30904491 
