20
-1555.796442
Au       0.00000000       0.00000000      -3.47326119 
Au      -0.00000000      -0.00000000      -0.38357369 
Au       0.00000000      -1.29136123       2.13950863 
Au      -0.00000000       1.29136123       2.13950863 
Au      -0.00000000       2.84172712      -0.08111097 
Au      -0.00000000      -2.84172712      -0.08111097 
Au       3.19857730      -0.00000000      -1.40048806 
Au      -3.19857730       0.00000000      -1.40048806 
Au       1.33957801      -3.52659009       2.05759074 
Au      -1.33957801       3.52659009       2.05759074 
Au       1.33957801       3.52659009       2.05759074 
Au      -1.33957801      -3.52659009       2.05759074 
Au      -2.14944613      -1.40077752       0.58956242 
Au       2.14944613       1.40077752       0.58956242 
Au      -2.14944613       1.40077752       0.58956242 
Au       2.14944613      -1.40077752       0.58956242 
Au      -1.33982199      -1.71307416      -2.01189922 
Au       1.33982199       1.71307416      -2.01189922 
Au      -1.33982199       1.71307416      -2.01189922 
Au       1.33982199      -1.71307416      -2.01189922 
