20
-1554.24416
Au       0.00000000       0.00000000      -3.36397597 
Au       0.00000000       0.00000000       0.29371746 
Au       0.00000000       2.20370623       3.15874463 
Au      -0.00000000      -2.20370623       3.15874463 
Au       1.38212851       0.00000000       2.61341828 
Au      -1.38212851      -0.00000000       2.61341828 
Au      -2.71436150       0.00000000       0.32326365 
Au       2.71436150      -0.00000000       0.32326365 
Au       3.92122180      -1.30231328      -1.64824563 
Au      -3.92122180       1.30231328      -1.64824563 
Au       3.92122180       1.30231328      -1.64824563 
Au      -3.92122180      -1.30231328      -1.64824563 
Au      -1.36171150       2.23693561       0.93168565 
Au       1.36171150      -2.23693561       0.93168565 
Au      -1.36171150      -2.23693561       0.93168565 
Au       1.36171150       2.23693561       0.93168565 
Au      -1.32765693       1.36988753      -1.56358869 
Au       1.32765693      -1.36988753      -1.56358869 
Au      -1.32765693      -1.36988753      -1.56358869 
Au       1.32765693       1.36988753      -1.56358869 
