20
-1554.417046
Au      -0.00004500      -0.00000000       0.17090227 
Au      -0.00001673       0.00000000      -2.63087543 
Au       0.00000198      -1.35654471       2.55892523 
Au       0.00000198       1.35654471       2.55892523 
Au      -2.20574794      -0.00000000       2.35881245 
Au       2.20575987       0.00000000       2.35879872 
Au       3.44912721       0.00000000       0.09822319 
Au      -3.44912371      -0.00000000       0.09821116 
Au       1.84180679      -2.12217259       0.85353623 
Au      -1.84180528       2.12218081       0.85353680 
Au       1.84180679       2.12217259       0.85353623 
Au      -1.84180528      -2.12218081       0.85353680 
Au      -2.00741345       1.31525630      -1.63848096 
Au       2.00743392      -1.31527291      -1.63847982 
Au      -2.00741345      -1.31525630      -1.63848096 
Au       2.00743392       1.31527291      -1.63847982 
Au       1.32167705      -3.78419187      -1.10803843 
Au      -1.32167786       3.78419668      -1.10803523 
Au       1.32167705       3.78419187      -1.10803843 
Au      -1.32167786      -3.78419668      -1.10803523 
