20
-1555.438587
Au       0.00000000       0.00000000       2.34967676 
Au      -0.00000000      -0.00000000      -2.34950331 
Au       2.66328538      -0.00000000      -2.18782329 
Au      -2.66328538      -0.00000000      -2.18782329 
Au      -1.27250244       0.00000000      -0.00015154 
Au       1.27250244       0.00000000      -0.00015154 
Au       2.66345475       0.00000000       2.18753790 
Au      -2.66345475       0.00000000       2.18753790 
Au       3.48017784      -1.38970250      -0.00017810 
Au      -3.48017784       1.38970250      -0.00017810 
Au       3.48017784       1.38970250      -0.00017810 
Au      -3.48017784      -1.38970250      -0.00017810 
Au      -1.31619574       2.23635553      -1.37732794 
Au       1.31619574      -2.23635553      -1.37732794 
Au      -1.31619574      -2.23635553      -1.37732794 
Au       1.31619574       2.23635553      -1.37732794 
Au      -1.31622587       2.23587867       1.37768115 
Au       1.31622587      -2.23587867       1.37768115 
Au      -1.31622587      -2.23587867       1.37768115 
Au       1.31622587       2.23587867       1.37768115 
