20
-1551.769261
Au      -0.00000000      -1.40114186      -2.93872410 
Au      -0.00000000       1.40114185      -2.93872410 
Au       0.00000003       3.02476137       4.20253473 
Au       0.00000003      -3.02476137       4.20253473 
Au       0.00000001      -1.36980341      -0.26665575 
Au       0.00000001       1.36980341      -0.26665575 
Au       0.00000001      -3.23867756       1.59229207 
Au       0.00000001       3.23867756       1.59229207 
Au      -0.00000000      -1.31069482      -5.52230069 
Au      -0.00000000       1.31069483      -5.52230069 
Au       2.11336912       0.00000000       0.64639608 
Au      -2.11336908       0.00000000       0.64639625 
Au      -2.25678069       1.30170046      -1.62925990 
Au       2.25678068      -1.30170042      -1.62925987 
Au      -2.25678069      -1.30170046      -1.62925990 
Au       2.25678068       1.30170042      -1.62925986 
Au      -1.33067377       1.30199173       2.77248863 
Au       1.33067372      -1.30199190       2.77248871 
Au      -1.33067377      -1.30199173       2.77248863 
Au       1.33067372       1.30199190       2.77248870 
