20
-1554.990032
Au       2.64778211      -1.52024313       1.00378989 
Au      -2.64778208       1.52024309       1.00378984 
Au      -0.17880456       2.66456046       1.41708334 
Au       0.17880461      -2.66456033       1.41708317 
Au       1.73878508       0.98509630       0.62371471 
Au      -1.73878492      -0.98509611       0.62371463 
Au      -0.64645544       1.12169561      -0.63698665 
Au       0.64645551      -1.12169530      -0.63698660 
Au       0.96157401       1.15260463       3.33799828 
Au      -0.96157386      -1.15260466       3.33799828 
Au      -1.64926813       1.37951455       3.51876475 
Au       1.64926810      -1.37951455       3.51876486 
Au       4.18089185      -1.95245592       3.08292232 
Au      -4.18089194       1.95245564       3.08292239 
Au      -0.07709453       3.54390955       3.85803779 
Au       0.07709420      -3.54390963       3.85803763 
Au       3.41348667       0.49565599       2.60040193 
Au      -3.41348659      -0.49565615       2.60040187 
Au       2.34373281      -3.71624761       2.53972285 
Au      -2.34373291       3.71624756       2.53972278 
