20
-1553.696638
Au       0.00000000      -1.29582830       0.71673417 
Au       0.00000000       1.29582830       0.71673417 
Au      -0.00000000      -3.44900348      -0.72908666 
Au      -0.00000000       3.44900348      -0.72908666 
Au      -0.00000000       1.30909362       3.37887802 
Au      -0.00000000      -1.30909362       3.37887802 
Au      -1.92791791       0.00000000       2.14084111 
Au       1.92791791       0.00000000       2.14084111 
Au      -3.31877405       0.00000000      -2.79486718 
Au       3.31877405       0.00000000      -2.79486718 
Au       3.05832419      -0.00000000      -0.19222673 
Au      -3.05832419      -0.00000000      -0.19222673 
Au       1.31411871      -1.33023019      -1.71540880 
Au      -1.31411871       1.33023019      -1.71540880 
Au       1.31411871       1.33023019      -1.71540880 
Au      -1.31411871      -1.33023019      -1.71540880 
Au      -2.31467252       2.46391691       0.45527243 
Au       2.31467252      -2.46391691       0.45527243 
Au      -2.31467252      -2.46391691       0.45527243 
Au       2.31467252       2.46391691       0.45527243 
