20
-1555.166257
Au       0.00000006       2.33080584      -2.48749910 
Au       0.00000008      -2.33080584      -2.48749910 
Au       0.00000003       1.37906521      -0.02831144 
Au      -0.00000002      -1.37906520      -0.02831143 
Au       3.18602431       0.00000001      -0.16965032 
Au      -3.18602427      -0.00000001      -0.16965033 
Au       1.30470153      -0.00000000      -2.04835532 
Au      -1.30470154      -0.00000000      -2.04835532 
Au       3.84763173       0.00000000       2.45195775 
Au      -3.84763174      -0.00000000       2.45195781 
Au       1.32587425       0.00000010       1.76375049 
Au      -1.32587439      -0.00000015       1.76375009 
Au      -2.22796752      -2.30926769      -1.13022309 
Au       2.22796753       2.30926786      -1.13022336 
Au      -2.22796755       2.30926785      -1.13022332 
Au       2.22796754      -2.30926797      -1.13022352 
Au      -2.83428571       2.14642120       1.38927738 
Au       2.83428570      -2.14642119       1.38927740 
Au      -2.83428567      -2.14642119       1.38927732 
Au       2.83428566       2.14642119       1.38927736 
