20
-1552.37699
Au       0.00000000       1.30190672       4.04057009 
Au      -0.00000000      -1.30190672       4.04057009 
Au       0.00000000       1.41799858       1.44628677 
Au      -0.00000000      -1.41799858       1.44628677 
Au      -1.29568494       0.00000002      -0.42237539 
Au       1.29568494      -0.00000002      -0.42237539 
Au       1.90558516      -0.00000000       2.69679567 
Au      -1.90558516       0.00000000       2.69679567 
Au      -3.63926106       0.00000000       0.73451951 
Au       3.63926106      -0.00000000       0.73451951 
Au       3.48026383       0.00000003      -1.88461936 
Au      -3.48026383      -0.00000003      -1.88461936 
Au       1.31382689       2.61828957      -0.51830403 
Au      -1.31382689      -2.61828957      -0.51830403 
Au       1.31382689      -2.61828962      -0.51830400 
Au      -1.31382689       2.61828962      -0.51830400 
Au       1.34189776      -1.31193489      -2.78728464 
Au      -1.34189776       1.31193489      -2.78728464 
Au       1.34189769       1.31193482      -2.78728466 
Au      -1.34189769      -1.31193482      -2.78728466 
