20
-1553.667577
Au       0.00008387       1.69326965       1.02399999 
Au      -0.00002099      -1.69320636       1.02405477 
Au       1.32342388       0.00012702      -0.67666801 
Au      -1.32339201      -0.00010739      -0.67662708 
Au      -1.32183370      -0.00006779       4.43427641 
Au       1.32151865       0.00007772       4.43414395 
Au      -3.91582460      -0.00008142       0.05402308 
Au       3.91588211       0.00001921       0.05391658 
Au      -1.30754297       0.00004367      -3.33210630 
Au       1.30751662      -0.00001449      -3.33213098 
Au       1.90161943       0.00005842       1.89652730 
Au      -1.90152750      -0.00003521       1.89654140 
Au      -3.14832932      -1.35430518      -2.05943398 
Au       3.14838092       1.35427900      -2.05949347 
Au      -3.14842656       1.35402925      -2.05956510 
Au       3.14836630      -1.35405648      -2.05966603 
Au      -2.47738665       2.15338216       0.35961455 
Au       2.47741925      -2.15339770       0.35957915 
Au      -2.47712117      -2.15353340       0.35954059 
Au       2.47719443       2.15351931       0.35947318 
