20
-1551.844263
Au       5.62656831      -0.00000000       3.09686220 
Au      -5.62656831      -0.00000000       3.09686220 
Au      -3.35327976       0.00000000       1.75541227 
Au       3.35327976      -0.00000000       1.75541227 
Au       5.61358449       0.00000000       0.49804516 
Au      -5.61358449      -0.00000000       0.49804516 
Au       1.29112037       0.00000000       0.18697593 
Au      -1.29112037       0.00000000       0.18697593 
Au       1.33011117      -0.00000000       3.41691067 
Au      -1.33011117       0.00000000       3.41691067 
Au       2.31294196      -0.00000000       5.93253596 
Au      -2.31294196       0.00000000       5.93253596 
Au      -1.29958752       2.19059131       4.96708570 
Au       1.29958752      -2.19059131       4.96708570 
Au      -1.29958752      -2.19059131       4.96708570 
Au       1.29958752       2.19059131       4.96708570 
Au      -3.58180944      -1.31931569       4.04831596 
Au       3.58180944       1.31931569       4.04831596 
Au      -3.58180944       1.31931569       4.04831596 
Au       3.58180944      -1.31931569       4.04831596 
