20
-1553.835336
Au      -0.01177938      -0.44163349      -0.24734777 
Au       0.01055136       0.95257150      -4.50337055 
Au       0.03033262      -1.63943812       2.17713571 
Au      -0.04968359       0.95267511       1.99199762 
Au       1.32289120      -0.41273736      -2.62642711 
Au      -1.34609297       2.30360237      -2.72703380 
Au       1.29050967       2.23517987      -2.63536490 
Au      -1.29829826      -0.35690704      -2.62528070 
Au      -3.05332188       3.53733105      -1.20694744 
Au       3.66540049      -3.85584131      -0.02264181 
Au      -3.67616660      -3.80201116       0.02798681 
Au       3.02951251       3.51389809      -1.18244787 
Au      -3.15474837      -1.60778112      -1.25336481 
Au       3.30424993       0.94761819      -1.50600555 
Au      -3.30669535       0.96936925      -1.54628729 
Au       3.22201953      -1.63876964      -1.29118596 
Au       1.31332706       1.92890315      -0.02236083 
Au      -1.29167330      -2.77722986       0.19490410 
Au       1.31750727      -2.74873636       0.15220859 
Au      -1.31784191       1.93993687      -0.08804659 
