20
-1551.7881
Au      -0.00000035       0.00000000       0.27520907 
Au       0.00000021      -0.00000000      -4.21966813 
Au       0.00000002      -1.34194926      -2.00973495 
Au       0.00000003       1.34194926      -2.00973495 
Au       1.29199255       4.85115086      -0.47047872 
Au      -1.29199351      -4.85115232      -0.47047907 
Au       1.29199256      -4.85115087      -0.47047873 
Au      -1.29199353       4.85115233      -0.47047908 
Au       3.45336778       1.29185780       1.20885878 
Au      -3.45336675      -1.29185774       1.20885872 
Au       3.45336776      -1.29185779       1.20885877 
Au      -3.45336674       1.29185773       1.20885871 
Au       1.31429161      -2.26705295       0.07353558 
Au      -1.31429157       2.26705399       0.07353514 
Au       1.31429162       2.26705294       0.07353558 
Au      -1.31429158      -2.26705398       0.07353514 
Au      -3.43754563       3.77330562       0.48082947 
Au       3.43754558      -3.77330564       0.48082946 
Au      -3.43754563      -3.77330563       0.48082947 
Au       3.43754559       3.77330564       0.48082945 
