20
-1551.311521
Au       1.35629150       0.00000019       2.05938761 
Au      -1.35629148      -0.00000019       2.05938759 
Au       1.29280482      -0.00000003      -3.35003799 
Au      -1.29280475       0.00000002      -3.35003801 
Au       1.39112963      -0.00000008      -0.58419727 
Au      -1.39112955       0.00000007      -0.58419729 
Au      -3.53685786       0.00000067      -2.06247386 
Au       3.53685792      -0.00000065      -2.06247386 
Au      -1.32444078       2.32312237       0.66429394 
Au       1.32444082      -2.32312238       0.66429396 
Au      -1.32444068      -2.32312229       0.66429423 
Au       1.32444073       2.32312230       0.66429424 
Au      -1.29550919       2.34339524       3.26160326 
Au       1.29550919      -2.34339523       3.26160328 
Au      -1.29550955      -2.34339583       3.26160352 
Au       1.29550954       2.34339583       3.26160353 
Au       1.31136333      -2.23447774      -1.95723684 
Au      -1.31136349       2.23447774      -1.95723687 
Au       1.31136227       2.23447756      -1.95723657 
Au      -1.31136242      -2.23447757      -1.95723659 
