20
-1554.442154
Au       0.00000000       1.31094269       0.16586795 
Au       0.00000000      -1.31094250       0.16586778 
Au      -0.00000000       3.41882816      -1.42262719 
Au      -0.00000000      -3.41882816      -1.42262720 
Au       1.31510901       0.00000000       2.13046873 
Au      -1.31510901       0.00000000       2.13046873 
Au       2.43095307       0.00000000      -0.25217077 
Au      -2.43095307       0.00000000      -0.25217077 
Au       1.30510875      -2.68067315       2.20760047 
Au      -1.30510875       2.68067314       2.20760046 
Au       1.30510875       2.68067314       2.20760046 
Au      -1.30510875      -2.68067315       2.20760047 
Au       1.31335873      -1.29935134      -2.28168984 
Au      -1.31335868       1.29935125      -2.28168975 
Au       1.31335868       1.29935125      -2.28168975 
Au      -1.31335873      -1.29935134      -2.28168984 
Au       2.25939228       2.63927902      -0.23667998 
Au      -2.25939228      -2.63927902      -0.23667998 
Au       2.25939228      -2.63927902      -0.23667998 
Au      -2.25939228       2.63927902      -0.23667998 
