20
-1554.2955
Au      -0.00000000       1.35836594       0.50690082 
Au      -0.00000000      -1.35836541       0.50690037 
Au       1.32530006       0.00000000       2.35674000 
Au      -1.32530006       0.00000000       2.35674000 
Au      -3.92920115       0.00000000       2.35595022 
Au       3.92920115       0.00000000       2.35595022 
Au       3.63294993       0.00000000      -1.65005774 
Au      -3.63294993       0.00000000      -1.65005774 
Au      -1.33681635      -3.45443448      -0.36318187 
Au       1.33681634       3.45443447      -0.36318186 
Au      -1.33681634       3.45443447      -0.36318186 
Au       1.33681635      -3.45443448      -0.36318187 
Au       2.72668911      -1.35245721       0.44980171 
Au      -2.72668910       1.35245721       0.44980171 
Au       2.72668910       1.35245721       0.44980171 
Au      -2.72668911      -1.35245721       0.44980171 
Au      -1.32610371       1.30753243      -1.87138626 
Au       1.32610384      -1.30753269      -1.87138649 
Au      -1.32610384      -1.30753269      -1.87138649 
Au       1.32610371       1.30753243      -1.87138626 
