20
-1552.069902
Au       0.00000053       3.57035676       0.10292855 
Au      -0.00000054      -3.57035675       0.10292855 
Au      -0.00000002      -1.41366498       2.08818538 
Au       0.00000002       1.41366497       2.08818539 
Au      -1.99434886       3.08629626       1.71879162 
Au       1.99434888      -3.08629625       1.71879161 
Au      -1.99434863      -3.08629629       1.71879125 
Au       1.99434862       3.08629630       1.71879125 
Au      -3.41173666       1.31154783      -1.81261783 
Au       3.41173666      -1.31154784      -1.81261785 
Au      -3.41173665      -1.31154784      -1.81261783 
Au       3.41173664       1.31154782      -1.81261782 
Au       1.33496021      -1.29946198      -0.18210262 
Au      -1.33496019       1.29946198      -0.18210261 
Au       1.33496025       1.29946228      -0.18210265 
Au      -1.33496028      -1.29946228      -0.18210265 
Au      -2.46686197       3.55576725      -0.81962808 
Au       2.46686196      -3.55576724      -0.81962808 
Au      -2.46686160      -3.55576703      -0.81962779 
Au       2.46686160       3.55576704      -0.81962779 
