20
-1553.880941
Au       0.00000000      -1.30416215       2.99435451 
Au      -0.00000000       1.30416213       2.99435450 
Au      -0.00000000       1.30797980      -1.06560098 
Au       0.00000000      -1.30797980      -1.06560098 
Au      -1.32499227      -2.46861955       1.08916934 
Au       1.32499227       2.46861956       1.08916934 
Au      -1.32499227       2.46861956       1.08916934 
Au       1.32499227      -2.46861955       1.08916934 
Au       1.29959856       3.60595260      -1.27788704 
Au      -1.29959856      -3.60595260      -1.27788704 
Au       1.29959856      -3.60595260      -1.27788704 
Au      -1.29959856       3.60595260      -1.27788704 
Au      -3.49481055      -3.55246094       0.11745839 
Au       3.49481055       3.55246095       0.11745838 
Au      -3.49481055       3.55246095       0.11745838 
Au       3.49481055      -3.55246094       0.11745839 
Au      -2.64035256      -1.30978763      -0.89311745 
Au       2.64035256       1.30978763      -0.89311745 
Au      -2.64035256       1.30978763      -0.89311745 
Au       2.64035256      -1.30978763      -0.89311745 
