20
-1554.661088
Au       2.85768211       3.15503993      -1.44699705 
Au      -2.85768203      -3.15503997      -1.44699716 
Au      -3.27498999       2.91780466      -1.12952769 
Au       3.27498992      -2.91780432      -1.12952817 
Au       1.59605569       0.86824704      -1.11434030 
Au      -1.59605574      -0.86824705      -1.11434021 
Au      -0.92530693       1.68513428      -1.00715956 
Au       0.92530688      -1.68513425      -1.00715944 
Au      -1.18167999      -0.58426747       1.59368423 
Au       1.18167978       0.58426753       1.59368410 
Au       1.05928469      -2.07800012       1.61780146 
Au      -1.05928488       2.07800018       1.61780115 
Au       1.06929692       3.03177479       0.44582660 
Au      -1.06929687      -3.03177492       0.44582645 
Au      -3.05548432       0.82423511       0.39997641 
Au       3.05548414      -0.82423544       0.39997642 
Au       1.24217174      -4.13803546      -0.05644372 
Au      -1.24217128       4.13803569      -0.05644411 
Au      -3.35657912      -1.75437180       0.69718033 
Au       3.35657926       1.75437161       0.69718030 
