20
-1552.56552
Au       0.00000041      -1.37302685       1.78408180 
Au      -0.00000041       1.37302685       1.78408181 
Au      -2.24354223       0.00000231       1.54973925 
Au       2.24354223      -0.00000260       1.54973925 
Au      -1.31902653      -1.37508133      -0.62326188 
Au       1.31902652       1.37508133      -0.62326189 
Au      -1.31903213       1.37508627      -0.62326193 
Au       1.31903214      -1.37508627      -0.62326192 
Au       2.31041407       2.58794410       1.59514966 
Au      -2.31041406      -2.58794396       1.59514964 
Au       2.31041324      -2.58794128       1.59514966 
Au      -2.31041324       2.58794143       1.59514968 
Au       3.88974520      -1.32600638      -0.06484872 
Au      -3.88974523       1.32600638      -0.06484874 
Au       3.88974535       1.32600642      -0.06484907 
Au      -3.88974532      -1.32600642      -0.06484904 
Au       3.15508600       1.32312305      -2.57394929 
Au      -3.15508599      -1.32312305      -2.57394930 
Au       3.15508569      -1.32312301      -2.57394948 
Au      -3.15508569       1.32312301      -2.57394948 
