20
-1555.594658
Au       0.00000276       3.67007431       0.86232124 
Au      -0.00000596      -3.67007426       0.86232116 
Au      -1.31979093       0.00000064      -1.32984807 
Au       1.31984165      -0.00000121      -1.32989527 
Au       1.30173519       1.31375582       1.10242977 
Au      -1.30176411      -1.31377718       1.10245048 
Au       1.30171255      -1.31374984       1.10244855 
Au      -1.30174123       1.31377125       1.10247068 
Au      -3.45865438      -1.32567305      -0.39789068 
Au       3.45865588       1.32567188      -0.39789121 
Au      -3.45864522       1.32565536      -0.39785219 
Au       3.45864597      -1.32565440      -0.39785240 
Au       2.64505121       3.53436953       0.78492167 
Au      -2.64504572      -3.53436331       0.78491982 
Au       2.64504247      -3.53435584       0.78495169 
Au      -2.64503732       3.53435013       0.78495020 
Au      -1.30367805       2.62901331      -1.25572598 
Au       1.30367635      -2.62901353      -1.25573051 
Au      -1.30367251      -2.62901540      -1.25574704 
Au       1.30367140       2.62901578      -1.25575187 
