20
-1551.426123
Au      -1.30529757      -0.00000001       2.34843167 
Au       1.30529757       0.00000001       2.34843167 
Au      -3.54356317      -0.00000001      -1.54328902 
Au       3.54356316       0.00000001      -1.54328902 
Au      -3.54109682       3.76536252       0.99296044 
Au       3.54109682      -3.76536252       0.99296045 
Au      -3.54109681      -3.76536254       0.99296046 
Au       3.54109681       3.76536254       0.99296047 
Au       2.72183969       1.32429717       0.58636017 
Au      -2.72183969      -1.32429717       0.58636017 
Au       2.72183966      -1.32429715       0.58636016 
Au      -2.72183966       1.32429715       0.58636016 
Au       1.31030775      -1.32532188      -1.73519416 
Au      -1.31030775       1.32532188      -1.73519417 
Au       1.31030768       1.32532182      -1.73519413 
Au      -1.31030769      -1.32532182      -1.73519413 
Au      -1.29933219      -3.45750841      -0.24669782 
Au       1.29933219       3.45750841      -0.24669781 
Au      -1.29933214       3.45750843      -0.24669777 
Au       1.29933215      -3.45750843      -0.24669777 
