20
-1552.976783
Au      -3.55912543       0.00000051       1.58223822 
Au       3.55912550      -0.00000051       1.58223812 
Au       1.30787254       0.00000119       4.25814759 
Au      -1.30787289      -0.00000120       4.25814760 
Au      -1.32895216       1.36660048       2.05276644 
Au       1.32895224      -1.36660047       2.05276644 
Au      -1.32893588      -1.36658311       2.05277064 
Au       1.32893596       1.36658311       2.05277063 
Au      -2.22798251       1.29769979      -0.41964832 
Au       2.22798251      -1.29769979      -0.41964836 
Au      -2.22798283      -1.29769944      -0.41964958 
Au       2.22798283       1.29769944      -0.41964961 
Au      -1.30340943       3.54926626       0.57794847 
Au       1.30340945      -3.54926626       0.57794846 
Au      -1.30340904      -3.54926784       0.57794758 
Au       1.30340905       3.54926784       0.57794758 
Au       3.57876983       2.60935053       1.42679785 
Au      -3.57876978      -2.60935052       1.42679790 
Au       3.57876803      -2.60934954       1.42679798 
Au      -3.57876799       2.60934954       1.42679803 
