20
-1550.805263
Au      -0.00000000      -0.00000000      -1.28187463 
Au       0.00000000       0.00000000       1.28187463 
Au       0.00000000      -2.55878718      -0.00000000 
Au       2.21597919       1.27939494       0.00000000 
Au      -2.21597919       1.27939494       0.00000000 
Au      -0.00000000       2.55878718      -0.00000000 
Au      -2.21597919      -1.27939494       0.00000000 
Au       2.21597919      -1.27939494       0.00000000 
Au      -4.81367096       1.29027896       0.00000000 
Au       1.28942031      -4.81389656      -0.00000000 
Au       3.52425060       3.52362023      -0.00000000 
Au       4.81367096      -1.29027896      -0.00000000 
Au      -1.28942031       4.81389656      -0.00000000 
Au      -3.52425060      -3.52362023       0.00000000 
Au       3.52425060      -3.52362023      -0.00000000 
Au      -4.81367096      -1.29027896       0.00000000 
Au       1.28942031       4.81389656       0.00000000 
Au      -3.52425060       3.52362023      -0.00000000 
Au       4.81367096       1.29027896      -0.00000000 
Au      -1.28942031      -4.81389656      -0.00000000 
