20
-1549.186521
Au       2.44579113       2.44579113      -0.69365041 
Au      -2.44579113      -2.44579113      -0.69365041 
Au      -2.44579113       2.44579113      -0.69365041 
Au       2.44579113      -2.44579113      -0.69365041 
Au       3.11110014       3.11110014       1.70610680 
Au      -3.11110014      -3.11110014       1.70610680 
Au      -3.11110014       3.11110014       1.70610680 
Au       3.11110014      -3.11110014       1.70610680 
Au       1.29909949       1.29909949       1.37474475 
Au      -1.29909949      -1.29909949       1.37474475 
Au      -1.29909949       1.29909949       1.37474475 
Au       1.29909949      -1.29909949       1.37474475 
Au       3.11704993      -1.28787294      -2.92145973 
Au      -3.11704993       1.28787294      -2.92145973 
Au       1.28787294       3.11704993      -2.92145973 
Au      -1.28787294      -3.11704993      -2.92145973 
Au       3.11704993       1.28787294      -2.92145973 
Au      -3.11704993      -1.28787294      -2.92145973 
Au       1.28787294      -3.11704993      -2.92145973 
Au      -1.28787294       3.11704993      -2.92145973 
