20
-1553.987531
Au      -0.00000002       0.00000146       1.70731211 
Au      -0.00000170      -0.00000152      -1.70731140 
Au       0.00000515       3.91852019      -0.00002902 
Au      -1.32764289      -1.57034208       0.00000032 
Au       1.32764281      -1.57033792       0.00000019 
Au       0.00000515      -3.91852075       0.00000153 
Au       1.32764267       1.57033825      -0.00000062 
Au      -1.32764275       1.57034242      -0.00000049 
Au      -0.00000039       2.61605148      -2.23166693 
Au      -2.23932509      -1.29819588      -2.48268290 
Au       2.23932279      -1.29819610      -2.48268424 
Au      -0.00000039      -2.61603883      -2.23168361 
Au       2.23932478       1.29819496      -2.48268452 
Au      -2.23932708       1.29819474      -2.48268317 
Au       2.23932134       1.29819890       2.48268344 
Au      -0.00000105      -2.61603943       2.23168180 
Au      -2.23932180       1.29819932       2.48268276 
Au      -2.23932340      -1.29819852       2.48268315 
Au      -0.00000106       2.61602740       2.23169777 
Au       2.23932294      -1.29819810       2.48268383 
