20
-1555.674617
Au      -0.00000000       0.00000000       1.33398716 
Au       0.00000000       0.00000000      -1.33398716 
Au       0.00000000       2.76618941      -0.00000000 
Au      -2.17651718      -1.29521356      -0.00000000 
Au       2.17651715      -1.29521355      -0.00000000 
Au      -0.00000000      -2.76618941       0.00000000 
Au       2.17651718       1.29521356       0.00000000 
Au      -2.17651715       1.29521355       0.00000000 
Au       2.58124038      -0.00000000      -2.31431702 
Au      -1.28950258       2.25584356      -2.29265681 
Au      -1.28950257      -2.25584355      -2.29265680 
Au      -2.58124038       0.00000000      -2.31431702 
Au       1.28950258      -2.25584356      -2.29265681 
Au       1.28950257       2.25584355      -2.29265680 
Au      -1.28950258       2.25584356       2.29265681 
Au       2.58124038      -0.00000000       2.31431702 
Au      -1.28950257      -2.25584355       2.29265680 
Au       1.28950258      -2.25584356       2.29265681 
Au      -2.58124038       0.00000000       2.31431702 
Au       1.28950257       2.25584355       2.29265680 
