20
-1555.942373
Au       0.00000000       0.00000000       2.03818676 
Au      -0.00000000      -0.00000000      -2.03818676 
Au      -0.00000000      -4.08766333      -0.00000000 
Au       3.54002023       2.04383172      -0.00000000 
Au      -3.54002023       2.04383172       0.00000000 
Au       0.00000000       4.08766333      -0.00000000 
Au      -3.54002023      -2.04383172       0.00000000 
Au       3.54002023      -2.04383172       0.00000000 
Au      -2.61830800      -0.00000000      -1.38274274 
Au       1.30915357      -2.26752122      -1.38274233 
Au       1.30915357       2.26752122      -1.38274233 
Au       2.61830800      -0.00000000      -1.38274274 
Au      -1.30915357       2.26752122      -1.38274233 
Au      -1.30915357      -2.26752122      -1.38274233 
Au       1.30915357      -2.26752122       1.38274233 
Au      -2.61830800      -0.00000000       1.38274274 
Au       1.30915357       2.26752122       1.38274233 
Au      -1.30915357       2.26752122       1.38274233 
Au       2.61830800      -0.00000000       1.38274274 
Au      -1.30915357      -2.26752122       1.38274233 
