20
-1555.942377
Au       0.00000000      -0.00000000       2.03929656 
Au      -0.00000000      -0.00000000      -2.03929656 
Au      -0.00000000       4.08768385       0.00000000 
Au      -3.54003806      -2.04384193      -0.00000000 
Au       3.54003806      -2.04384193       0.00000000 
Au      -0.00000000      -4.08768385       0.00000000 
Au       3.54003806       2.04384193      -0.00000000 
Au      -3.54003806       2.04384193       0.00000000 
Au      -2.61818530      -0.00000000       1.38274790 
Au       1.30909265      -2.26741498       1.38274790 
Au       1.30909265       2.26741498       1.38274790 
Au       2.61818530      -0.00000000       1.38274790 
Au      -1.30909265       2.26741498       1.38274790 
Au      -1.30909265      -2.26741498       1.38274790 
Au       1.30909265      -2.26741498      -1.38274790 
Au      -2.61818530      -0.00000000      -1.38274790 
Au       1.30909265       2.26741498      -1.38274790 
Au      -1.30909265       2.26741498      -1.38274790 
Au       2.61818530      -0.00000000      -1.38274790 
Au      -1.30909265      -2.26741498      -1.38274790 
