20
-1555.674641
Au      -0.00000000      -0.00000000       1.33374613 
Au      -0.00000000       0.00000000      -1.33374613 
Au       2.76275267      -0.00000000       0.00000000 
Au      -1.29516719       2.17867178      -0.00000000 
Au      -1.29516718      -2.17867176       0.00000000 
Au      -2.76275267       0.00000000      -0.00000000 
Au       1.29516719      -2.17867178       0.00000000 
Au       1.29516718       2.17867176      -0.00000000 
Au       0.00000000       2.58234429      -2.31465415 
Au      -2.25508788      -1.28943393      -2.29234098 
Au       2.25508787      -1.28943392      -2.29234098 
Au      -0.00000000      -2.58234429      -2.31465415 
Au       2.25508788       1.28943393      -2.29234098 
Au      -2.25508787       1.28943392      -2.29234098 
Au       2.25508788       1.28943393       2.29234098 
Au      -0.00000000      -2.58234429       2.31465415 
Au      -2.25508787       1.28943392       2.29234098 
Au      -2.25508788      -1.28943393       2.29234098 
Au       0.00000000       2.58234429       2.31465415 
Au       2.25508787      -1.28943392       2.29234098 
