20
-1555.676496
Au       0.00000000      -0.00000000       1.33153841 
Au       0.00000000      -0.00000000      -1.33153841 
Au       2.50748902      -0.00000005       0.00000000 
Au      -1.31831004       2.31606584       0.00000000 
Au      -1.31831004      -2.31606593       0.00000000 
Au      -2.50748902       0.00000005      -0.00000000 
Au       1.31831004      -2.31606584      -0.00000000 
Au       1.31831004       2.31606593      -0.00000000 
Au       0.00000016      -2.56418822       2.28837896 
Au       2.25688077       1.30272073       2.30320894 
Au      -2.25688064       1.30272083       2.30320893 
Au      -0.00000016       2.56418822       2.28837896 
Au      -2.25688077      -1.30272073       2.30320894 
Au       2.25688064      -1.30272083       2.30320893 
Au      -2.25688077      -1.30272073      -2.30320894 
Au      -0.00000016       2.56418822      -2.28837896 
Au       2.25688064      -1.30272083      -2.30320893 
Au       2.25688077       1.30272073      -2.30320894 
Au       0.00000016      -2.56418822      -2.28837896 
Au      -2.25688064       1.30272083      -2.30320893 
