20
-1555.674627
Au       0.00000000       0.00000000       1.33325376 
Au      -0.00000000       0.00000000      -1.33325376 
Au       2.75789756       0.00000001       0.00000000 
Au      -1.29530197       2.18182304      -0.00000000 
Au      -1.29530201      -2.18182310       0.00000000 
Au      -2.75789756      -0.00000001      -0.00000000 
Au       1.29530197      -2.18182304       0.00000000 
Au       1.29530201       2.18182310      -0.00000000 
Au      -0.00000000      -2.58360664       2.31493463 
Au       2.25419776       1.28950160       2.29200971 
Au      -2.25419778       1.28950161       2.29200972 
Au       0.00000000       2.58360664       2.31493463 
Au      -2.25419776      -1.28950160       2.29200971 
Au       2.25419778      -1.28950161       2.29200972 
Au      -2.25419776      -1.28950160      -2.29200971 
Au       0.00000000       2.58360664      -2.31493463 
Au       2.25419778      -1.28950161      -2.29200972 
Au       2.25419776       1.28950160      -2.29200971 
Au      -0.00000000      -2.58360664      -2.31493463 
Au      -2.25419778       1.28950161      -2.29200972 
