20
-1549.316975
Au      -0.00000000      -0.00000000      -1.27752212 
Au       0.00000000      -0.00000000       1.27752212 
Au      -2.58136638      -0.00000000      -0.00000000 
Au       1.29102444      -2.23637419       0.00000000 
Au       1.29102444       2.23637419       0.00000000 
Au       2.58136638       0.00000000      -0.00000000 
Au      -1.29102444       2.23637419      -0.00000000 
Au      -1.29102444      -2.23637419       0.00000000 
Au      -0.00000000      -4.10380950       1.30961200 
Au       3.55398373       2.05155090       1.30952180 
Au      -3.55398373       2.05155090       1.30952180 
Au       0.00000000       4.10380950       1.30961200 
Au      -3.55398373      -2.05155090       1.30952180 
Au       3.55398373      -2.05155090       1.30952180 
Au      -3.55398373      -2.05155090      -1.30952180 
Au       0.00000000       4.10380950      -1.30961200 
Au       3.55398373      -2.05155090      -1.30952180 
Au       3.55398373       2.05155090      -1.30952180 
Au      -0.00000000      -4.10380950      -1.30961200 
Au      -3.55398373       2.05155090      -1.30952180 
