20
-1551.880711
Au       0.00000000      -0.00000000       3.18023648 
Au      -0.00000000       0.00000000      -3.18023648 
Au      -2.70486681      -0.00000000       0.00000000 
Au       1.32402504      -2.32135861      -0.00000000 
Au       1.32402503       2.32135862       0.00000000 
Au       2.70486681       0.00000000       0.00000000 
Au      -1.32402504       2.32135861      -0.00000000 
Au      -1.32402503      -2.32135862      -0.00000000 
Au      -2.67685958       0.00000000      -2.60995296 
Au       1.29699099      -2.20477296      -2.59949619 
Au       1.29699099       2.20477296      -2.59949619 
Au       2.67685958      -0.00000000      -2.60995296 
Au      -1.29699099       2.20477296      -2.59949619 
Au      -1.29699099      -2.20477296      -2.59949619 
Au       1.29699099      -2.20477296       2.59949619 
Au      -2.67685958       0.00000000       2.60995296 
Au       1.29699099       2.20477296       2.59949619 
Au      -1.29699099       2.20477296       2.59949619 
Au       2.67685958      -0.00000000       2.60995296 
Au      -1.29699099      -2.20477296       2.59949619 
