20
-1551.06244
Au       0.00000000      -0.00000000       1.90421239 
Au       0.00000000       0.00000000      -1.90567472 
Au       2.25832214      -1.30386385       1.38818384 
Au      -0.00000000       2.60768145       1.38816180 
Au      -2.25832214      -1.30386385       1.38818384 
Au      -2.25832214       1.30386385       1.38818384 
Au       0.00000000      -2.60768145       1.38816180 
Au       2.25832214       1.30386385       1.38818384 
Au       4.15152593      -2.39659048      -0.00011591 
Au      -0.00000000       4.79355295      -0.00004139 
Au      -4.15152593      -2.39659048      -0.00011591 
Au      -4.15152593       2.39659048      -0.00011591 
Au       0.00000000      -4.79355295      -0.00004139 
Au       4.15152593       2.39659048      -0.00011591 
Au       2.25813863      -1.30374875      -1.38784134 
Au      -0.00000000       2.60747624      -1.38784244 
Au      -2.25813863      -1.30374875      -1.38784134 
Au      -2.25813863       1.30374875      -1.38784134 
Au       0.00000000      -2.60747624      -1.38784244 
Au       2.25813863       1.30374875      -1.38784134 
