20
-1554.514728
Au       0.00000192      -0.00000889       3.46286620 
Au       0.00000254       0.00000218      -1.46472888 
Au      -2.00762771       1.43819632      -0.57379927 
Au      -0.00031526      -2.80051469       0.87788049 
Au       2.00726555       1.43850846      -0.57369073 
Au       2.00765000      -1.43823136      -0.57385886 
Au       0.00028509       2.80053165       0.87786680 
Au      -2.00725454      -1.43849842      -0.57365662 
Au       1.38412625      -1.30910291      -3.30553442 
Au      -0.00045059       2.78044596      -1.69200770 
Au      -1.38356978      -1.30976649      -3.30569178 
Au      -1.38411813       1.30910259      -3.30553911 
Au       0.00045915      -2.78044838      -1.69201833 
Au       1.38358563       1.30977010      -3.30569233 
Au       1.82810821      -1.32408869       2.04278744 
Au       0.00032500       2.58957321       3.48801005 
Au      -1.82866776      -1.32392222       2.04299246 
Au      -1.82813426       1.32407893       2.04279260 
Au      -0.00031109      -2.58957977       3.48802743 
Au       1.82863980       1.32395242       2.04299455 
