20
-1554.514736
Au      -0.00000020       0.00002711      -3.46370119 
Au      -0.00000010       0.00000063       1.46551515 
Au      -1.38378870       1.30952211       3.30643191 
Au      -0.00000570      -2.77964428       1.69199329 
Au       1.38383152       1.30955382       3.30642680 
Au       1.38379318      -1.30952014       3.30643231 
Au       0.00000470       2.77963817       1.69200488 
Au      -1.38383474      -1.30955235       3.30643048 
Au      -1.82833709       1.32383460      -2.04353828 
Au       0.00000774      -2.58975129      -3.48804463 
Au       1.82830232       1.32390263      -2.04358141 
Au       1.82833861      -1.32383544      -2.04353846 
Au      -0.00000833       2.58973841      -3.48803888 
Au      -1.82830177      -1.32390230      -2.04357576 
Au      -2.00753866       1.43793416       0.57361790 
Au       0.00000892      -2.79972542      -0.87779599 
Au       2.00752874       1.43788948       0.57357916 
Au       2.00753683      -1.43793454       0.57361733 
Au      -0.00000672       2.79971388      -0.87781520 
Au      -2.00753056      -1.43788923       0.57358061 
