20
-1548.886606
Au       3.35394136      -0.00000619      -1.19221269 
Au      -3.35394136       0.00000619      -1.19221269 
Au      -0.00000619       3.35394147      -1.19221301 
Au       0.00000619      -3.35394147      -1.19221301 
Au      -1.29536862       3.11816317      -3.43740032 
Au       1.29536862      -3.11816317      -3.43740032 
Au      -3.11817151      -1.29537219      -3.43741086 
Au       3.11817151       1.29537219      -3.43741086 
Au      -1.29537219      -3.11817216      -3.43741123 
Au       1.29537219       3.11817216      -3.43741123 
Au      -3.11816252       1.29536863      -3.43739995 
Au       3.11816252      -1.29536863      -3.43739995 
Au      -3.11810767       1.29538381       1.05302203 
Au       3.11810767      -1.29538381       1.05302203 
Au      -1.29538395      -3.11811447       1.05303397 
Au       1.29538395       3.11811447       1.05303397 
Au      -3.11811456      -1.29538397       1.05303432 
Au       3.11811456       1.29538397       1.05303432 
Au      -1.29538379       3.11810758       1.05302168 
Au       1.29538379      -3.11810758       1.05302168 
