20
-1550.89562
Au       0.00000000      -0.00000000      -0.97447411 
Au      -0.00000000      -0.00000000       1.77855695 
Au      -2.27960267       1.31612195       1.32406558 
Au      -0.00000000      -2.63222705       1.32401014 
Au       2.27960267       1.31612195       1.32406558 
Au       2.27960267      -1.31612195       1.32406558 
Au       0.00000000       2.63222705       1.32401014 
Au      -2.27960267      -1.31612195       1.32406558 
Au       4.19332604      -2.42087332      -0.09649920 
Au       0.00000000       4.84196763      -0.09657215 
Au      -4.19332604      -2.42087332      -0.09649920 
Au      -4.19332604       2.42087332      -0.09649920 
Au      -0.00000000      -4.84196763      -0.09657215 
Au       4.19332604       2.42087332      -0.09649920 
Au       2.25353238      -1.30108635      -1.36151942 
Au      -0.00000000       2.60215767      -1.36157333 
Au      -2.25353238      -1.30108635      -1.36151942 
Au      -2.25353238       1.30108635      -1.36151942 
Au       0.00000000      -2.60215767      -1.36157333 
Au       2.25353238       1.30108635      -1.36151942 
