20
-1553.5287
Au       0.00000000      -0.00000000      -2.78560051 
Au       0.00000000       0.00000000      -0.10019574 
Au       2.25015823      -1.29922233       0.72203165 
Au      -0.00000187       2.59830380       0.72200869 
Au      -2.25015636      -1.29922558       0.72203165 
Au      -2.25015636       1.29922558       0.72203165 
Au      -0.00000187      -2.59830380       0.72200869 
Au       2.25015823       1.29922233       0.72203165 
Au       2.24453244      -1.29574434       3.49883027 
Au      -0.00000343       2.59163771       3.49880979 
Au      -2.24452900      -1.29575030       3.49883027 
Au      -2.24452901       1.29575029       3.49883027 
Au      -0.00000345      -2.59163771       3.49880979 
Au       2.24453243       1.29574435       3.49883027 
Au      -4.02920383       0.00000000       2.11255669 
Au       2.01458932      -3.48939648       2.11253031 
Au       2.01458932       3.48939647       2.11253031 
Au       4.02920068      -0.00000000       2.11255724 
Au      -2.01458775       3.48939375       2.11253087 
Au      -2.01458774      -3.48939374       2.11253087 
