20
-1551.598211
Au       0.00000039      -0.00000080       0.68048907 
Au      -0.00000061       0.00000432      -1.96015104 
Au       3.91279330      -2.25984512       1.64786844 
Au       0.00000012       4.51845720       1.64396151 
Au      -3.91279296      -2.25984506       1.64786813 
Au      -3.91279243       2.25984490       1.64786786 
Au       0.00000012      -4.51845623       1.64396162 
Au       3.91279276       2.25984496       1.64786816 
Au      -2.57703288      -0.00001692      -1.27814872 
Au       1.28935596      -2.23423140      -1.28467449 
Au       1.28931454       2.23424715      -1.28467623 
Au       2.57703442      -0.00001697      -1.27814804 
Au      -1.28931607       2.23424537      -1.28467660 
Au      -1.28935747      -2.23422968      -1.28467485 
Au       2.63753171       0.00000044       1.36712647 
Au      -1.31889454       2.28433418       1.36182974 
Au      -1.31889272      -2.28433549       1.36182953 
Au      -2.63753143       0.00000044       1.36712587 
Au       1.31889299      -2.28433549       1.36182986 
Au       1.31889480       2.28433418       1.36183008 
