20
-1545.206294
Au      -0.00000758       0.00000000      -6.21560090 
Au       0.00001319      -0.00000985       3.65534188 
Au      -2.24018429       1.29338214      -6.21488451 
Au       0.00000188      -2.58684886      -6.21444317 
Au       2.24018620       1.29337803      -6.21488461 
Au       2.24018620      -1.29337802      -6.21488461 
Au       0.00000188       2.58684885      -6.21444317 
Au      -2.24018429      -1.29338213      -6.21488451 
Au       5.15130543      -0.00000150       3.33624226 
Au      -2.57598666       4.46172450       3.33624814 
Au      -2.57599216      -4.46173701       3.33624652 
Au      -5.15128469       0.00000117       3.33624644 
Au       2.57599605      -4.46174118       3.33624404 
Au       2.57599110       4.46173492       3.33624658 
Au       2.59108828      -0.00000137       3.30537159 
Au      -1.29574247       2.24453286       3.30511667 
Au      -1.29573426      -2.24451856       3.30511594 
Au      -2.59111955      -0.00000215       3.30536702 
Au       1.29572720      -2.24449886       3.30512227 
Au       1.29573854       2.24451703       3.30511615 
