20
-1551.754481
Au      -0.90924758      -0.93330775       2.14262767 
Au       0.90924659       0.93330571       2.14262918 
Au       0.35924083      -1.24395954       4.41378660 
Au      -0.35924069       1.24395950       4.41378857 
Au      -3.94928677      -2.48316863       4.15471175 
Au       3.94928684       2.48316929       4.15471219 
Au       3.45803052      -4.38395488       4.99837623 
Au      -3.45802977       4.38395480       4.99837662 
Au      -5.26577001       2.58544520       5.50472664 
Au       5.26576995      -2.58544500       5.50472727 
Au       3.24440281       4.84140300       3.37797592 
Au      -3.24440324      -4.84140333       3.37797649 
Au      -1.39434254      -3.04038830       3.72357595 
Au       1.39434325       3.04038840       3.72357544 
Au       2.83446104      -1.84318503       4.96132855 
Au      -2.83446130       1.84318565       4.96132889 
Au      -1.04815673       3.75361464       4.30336292 
Au       1.04815630      -3.75361395       4.30336204 
Au       2.19123548       0.60763826       4.43322201 
Au      -2.19123500      -0.60763804       4.43322099 
