20
-1554.505303
Au      -0.00350514       0.00154207      -3.53834139 
Au       0.00010112      -0.01747125       1.48210259 
Au       2.59152795       0.01351004      -3.48836341 
Au      -1.32495529       1.78458559      -2.04403935 
Au      -1.32027585      -1.78389603      -2.03046389 
Au      -2.59992437      -0.00741416      -3.49337701 
Au       1.31716159      -1.77483522      -2.03051143 
Au       1.31207088       1.77724408      -2.00681338 
Au      -2.77043619       0.00204488       1.70130673 
Au       1.31873902      -1.41606411       3.29948340 
Au       1.32581507       1.38708997       3.31637799 
Au       2.77828631      -0.00384904       1.69565762 
Au      -1.29193999       1.45616032       3.24899199 
Au      -1.31221185      -1.40558465       3.30731249 
Au       2.86711294      -0.00269159      -0.87258688 
Au      -1.43192073       1.99643190       0.56365826 
Au      -1.45107884      -2.00855330       0.57675846 
Au      -2.85516652       0.00198768      -0.87086086 
Au       1.44932209      -2.01126393       0.57545810 
Au       1.40127781       2.01102672       0.60824996 
