20
-1550.931429
Au      -0.03754464      -0.00001148       1.76602877 
Au      -0.00278030      -0.00000494      -0.99133541 
Au      -2.23319091       1.39267268      -1.11614849 
Au       0.04939756      -2.58868774      -1.14308893 
Au       2.27893510       1.29350106      -1.11790384 
Au       2.27609585      -1.29768916      -1.11794134 
Au       0.05379102       2.58883654      -1.14308007 
Au      -2.23585787      -1.38928740      -1.11610211 
Au      -3.61391083       3.61063904      -1.16256310 
Au      -1.30957249      -4.81387893      -1.21285164 
Au       4.85215321       1.30460191      -1.11722567 
Au       3.52678451      -3.54218492      -1.14996463 
Au       1.29649571       4.87178899      -1.20188668 
Au      -4.82572408      -1.30638663      -1.09308248 
Au      -4.82296693       1.30428378      -1.09312781 
Au       3.52406813       3.54124197      -1.15014408 
Au       1.29681986      -4.86861993      -1.20165366 
Au       4.84921882      -1.30220025      -1.11710074 
Au      -3.61227405      -3.61037161      -1.16279301 
Au      -1.30993767       4.81175703      -1.21266698 
