20
-1554.322171
Au      -0.00000000       0.00000000      -3.90321619 
Au      -0.00000000      -0.00000000       3.90321644 
Au      -0.00000000       0.00000000      -1.30401198 
Au      -0.00000000      -0.00000000       1.30401161 
Au       1.86380350      -1.40760644      -2.61205103 
Au      -1.86380350       1.40760644      -2.61205103 
Au      -1.40760626      -1.86380368       2.61205101 
Au       1.40760626       1.86380368       2.61205101 
Au       0.61981093       2.25203970      -2.61181096 
Au      -0.61981093      -2.25203970      -2.61181096 
Au       2.25203975      -0.61981083       2.61181088 
Au      -2.25203975       0.61981083       2.61181088 
Au       0.91794904      -2.70025701       1.74089214 
Au      -0.91794904       2.70025701       1.74089214 
Au      -2.70025695      -0.91794883      -1.74089201 
Au       2.70025695       0.91794883      -1.74089201 
Au       1.02468532       2.07914379       0.00020406 
Au      -1.02468532      -2.07914379       0.00020406 
Au       2.07914370      -1.02468560      -0.00020402 
Au      -2.07914370       1.02468560      -0.00020402 
