20
-1550.26202
Au       0.00000000       0.00000000      -4.76047462 
Au       0.00000000       0.00000000       4.76047462 
Au      -0.00000000      -0.00000000       2.19884158 
Au       0.00000000      -0.00000000      -2.19884158 
Au      -0.00000000       3.97479438       0.00000000 
Au       0.00000000      -3.97479438      -0.00000000 
Au      -0.00000000       1.37636366      -0.00000000 
Au      -0.00000000      -1.37636366       0.00000000 
Au       2.22198581      -0.00000000      -0.00000000 
Au      -2.22198581      -0.00000000       0.00000000 
Au       4.84172455       0.00000000       0.00000000 
Au      -4.84172455       0.00000000      -0.00000000 
Au      -2.26590821      -2.67213546       0.00000000 
Au       2.26590821       2.67213546      -0.00000000 
Au       2.26590821      -2.67213546      -0.00000000 
Au      -2.26590821       2.67213546       0.00000000 
Au      -4.85311422       2.56144555       0.00000000 
Au       4.85311422      -2.56144555      -0.00000000 
Au       4.85311422       2.56144555      -0.00000000 
Au      -4.85311422      -2.56144555       0.00000000 
