20
-1551.88783
Au      -0.00000000      -0.00000002       2.23549957 
Au      -0.00000000      -0.00000002      -2.23549957 
Au      -0.00000000       0.00000017       4.79720830 
Au      -0.00000000       0.00000017      -4.79720830 
Au      -0.00000000       3.92044055      -0.00000000 
Au       0.00000000      -3.92044059      -0.00000000 
Au       0.00000000      -1.31568968       0.00000000 
Au      -0.00000000       1.31568964      -0.00000000 
Au       6.73485338      -0.00000002      -0.00000000 
Au      -6.73485338      -0.00000002      -0.00000000 
Au       2.22407461      -0.00000001       0.00000000 
Au      -2.22407461      -0.00000002       0.00000000 
Au      -2.27699092       2.66504720       0.00000000 
Au       2.27699091      -2.66504724       0.00000000 
Au       2.27699092       2.66504720       0.00000000 
Au      -2.27699091      -2.66504724       0.00000000 
Au       4.49822860       1.31373860       0.00000000 
Au      -4.49822859      -1.31373863       0.00000000 
Au      -4.49822860       1.31373859       0.00000000 
Au       4.49822859      -1.31373863       0.00000000 
