20
-1549.47655
Au       0.00000000       0.00000000       2.22005244 
Au      -0.00000000      -0.00000000      -2.22005244 
Au       0.00000000      -0.00000000      -4.78173704 
Au      -0.00000000       0.00000000       4.78173704 
Au       0.00000000       1.34433384      -0.00000000 
Au       0.00000000      -1.34433384       0.00000000 
Au       0.00000000      -3.94435423       0.00000000 
Au      -0.00000000       3.94435423       0.00000000 
Au       2.21343381       0.00000000       0.00000000 
Au      -2.21343381       0.00000000      -0.00000000 
Au      -4.77462532      -0.00000000      -0.00000000 
Au       4.77462532      -0.00000000       0.00000000 
Au       2.29540226      -2.61517437      -0.00000000 
Au      -2.29540226       2.61517437      -0.00000000 
Au      -2.29540226      -2.61517437      -0.00000000 
Au       2.29540226       2.61517437       0.00000000 
Au       2.24545849       5.21896403       0.00000000 
Au      -2.24545849      -5.21896403      -0.00000000 
Au      -2.24545849       5.21896403       0.00000000 
Au       2.24545849      -5.21896403       0.00000000 
