20
-1547.749368
Au       0.00000000       0.00000000      -2.22574903 
Au       0.00000000      -0.00000000       2.22574903 
Au      -0.00000000       0.00000000      -4.78348817 
Au      -0.00000000      -0.00000000       4.78348817 
Au      -0.00000000      -1.34351455      -0.00000000 
Au      -0.00000000       1.34351455      -0.00000000 
Au      -0.00000000      -3.93685119      -0.00000000 
Au      -0.00000000       3.93685119      -0.00000000 
Au       4.82256543       0.00000000      -0.00000000 
Au      -4.82256543      -0.00000000       0.00000000 
Au      -2.24018616       0.00000000      -0.00000000 
Au       2.24018616      -0.00000000       0.00000000 
Au       2.27413163      -2.66896497       0.00000000 
Au      -2.27413163       2.66896497      -0.00000000 
Au      -2.27413163      -2.66896497      -0.00000000 
Au       2.27413163       2.66896497       0.00000000 
Au       2.57089378      -0.00000000       2.57340385 
Au      -2.57089378      -0.00000000       2.57340385 
Au      -2.57089378       0.00000000      -2.57340385 
Au       2.57089378       0.00000000      -2.57340385 
