20
-1550.262028
Au       0.00000000      -0.00000000      -1.37729159 
Au      -0.00000000       0.00000000       1.37729159 
Au       0.00000000      -0.00000000      -3.97554909 
Au      -0.00000000       0.00000000       3.97554909 
Au      -0.00000000       4.75968872      -0.00000000 
Au       0.00000000      -4.75968872      -0.00000000 
Au      -0.00000000       2.19818275      -0.00000000 
Au       0.00000000      -2.19818275      -0.00000000 
Au       4.84022968      -0.00000000      -0.00000000 
Au      -4.84022968       0.00000000       0.00000000 
Au      -2.22088767       0.00000000      -0.00000000 
Au       2.22088767      -0.00000000       0.00000000 
Au       2.26602390      -0.00000000       2.67280399 
Au      -2.26602390       0.00000000       2.67280399 
Au      -2.26602390       0.00000000      -2.67280399 
Au       2.26602390      -0.00000000      -2.67280399 
Au       4.85332517      -0.00000000       2.56131836 
Au      -4.85332517      -0.00000000       2.56131836 
Au      -4.85332517      -0.00000000      -2.56131836 
Au       4.85332517       0.00000000      -2.56131836 
