20
-1549.476558
Au       0.00000000       0.00000000       1.34417154 
Au       0.00000000       0.00000000      -1.34417154 
Au      -0.00000000       0.00000000      -3.94407470 
Au       0.00000000       0.00000000       3.94407470 
Au      -0.00000000      -2.22025499       0.00000000 
Au      -0.00000000       2.22025499       0.00000000 
Au      -0.00000000       4.78166965       0.00000000 
Au      -0.00000000      -4.78166965       0.00000000 
Au      -2.21361087       0.00000000       0.00000000 
Au       2.21361087      -0.00000000      -0.00000000 
Au      -4.77496036      -0.00000000      -0.00000000 
Au       4.77496036      -0.00000000       0.00000000 
Au       2.29552989      -0.00000000      -2.61517557 
Au      -2.29552989       0.00000000      -2.61517557 
Au      -2.29552989       0.00000000       2.61517557 
Au       2.29552989      -0.00000000       2.61517557 
Au      -2.24510983       0.00000000       5.21913555 
Au       2.24510983       0.00000000       5.21913555 
Au       2.24510983       0.00000000      -5.21913555 
Au      -2.24510983       0.00000000      -5.21913555 
