20
-1551.044414
Au      -1.00134221      -0.94840061      -4.91803455 
Au      -0.19358207      -0.26023875       4.37607414 
Au      -0.07004799      -0.07952851       1.81910975 
Au      -0.66223947      -0.72687253      -2.38458532 
Au      -3.33660393       0.13855783      -0.13362466 
Au       3.54113914       0.10010871       0.28417672 
Au       0.63392974      -3.25853676      -0.16491754 
Au      -0.39923301       3.53960934       0.10134170 
Au       5.49791150      -1.56633849       0.03639216 
Au      -5.26776618       1.84726357      -0.28635319 
Au       0.18046575       6.01782672       0.63941621 
Au       0.16840404      -5.74467697       0.39324712 
Au       2.03816038       4.22467878       0.79619064 
Au      -1.79076513      -4.05316438       0.46889996 
Au      -2.82509817       2.71884211      -0.29727965 
Au       3.07730768      -2.42330522      -0.30717206 
Au       1.52725885       1.71740900       0.44572824 
Au      -1.37538689      -1.54867554      -0.00691037 
Au      -0.83072477       1.02648322      -0.42809104 
Au       1.08821274      -0.72104150      -0.43360825 
