20
-1547.749368
Au       0.00000000       0.00000000      -3.93662753 
Au       0.00000000       0.00000000       3.93662753 
Au       0.00000000       0.00000001       1.34343517 
Au       0.00000000       0.00000001      -1.34343517 
Au      -0.00000006      -2.24014500       0.00000000 
Au       0.00000005       2.24014503       0.00000000 
Au       0.00000011      -4.82269232      -0.00000000 
Au      -0.00000009       4.82269235      -0.00000000 
Au      -2.22594310       0.00000002       0.00000000 
Au       2.22594311      -0.00000011      -0.00000000 
Au       4.78369116       0.00000019      -0.00000000 
Au      -4.78369116      -0.00000003      -0.00000000 
Au      -2.57362884       2.57093803       0.00000000 
Au       2.57362880      -2.57093813      -0.00000000 
Au       2.57362896       2.57093789       0.00000000 
Au      -2.57362894      -2.57093798      -0.00000000 
Au       0.00000001       2.27403733       2.66892109 
Au      -0.00000001      -2.27403732       2.66892109 
Au       0.00000001       2.27403733      -2.66892109 
Au      -0.00000001      -2.27403732      -2.66892109 
