20
-1550.210642
Au       0.00000000      -0.00000000      -4.86565647 
Au      -0.00000000       0.00000000       4.86565647 
Au       0.00000000      -0.00000000       2.27631864 
Au       0.00000000       0.00000000      -2.27631864 
Au       0.00000000       1.28428712       0.00000000 
Au       0.00000000      -1.28428712      -0.00000000 
Au       0.00000000       3.93313327       0.00000000 
Au      -0.00000000      -3.93313327      -0.00000000 
Au      -4.81013909      -0.00000000       0.00000000 
Au       4.81013909      -0.00000000      -0.00000000 
Au      -2.25093493       0.00000000       0.00000000 
Au       2.25093493      -0.00000000      -0.00000000 
Au       2.24781981      -2.59416198       0.00000000 
Au      -2.24781981       2.59416198      -0.00000000 
Au      -2.24781981      -2.59416198      -0.00000000 
Au       2.24781981       2.59416198      -0.00000000 
Au       0.00000000      -2.64181065       2.25056937 
Au       0.00000000       2.64181065       2.25056937 
Au      -0.00000000      -2.64181065      -2.25056937 
Au      -0.00000000       2.64181065      -2.25056937 
