20
-1551.887826
Au       0.00000000      -0.00000000       2.22395904 
Au      -0.00000000      -0.00000000      -2.22395904 
Au       0.00000000      -0.00000000       6.73465755 
Au       0.00000000      -0.00000000      -6.73465755 
Au      -0.00000000       1.31577517      -0.00000000 
Au      -0.00000000      -1.31577517       0.00000000 
Au       0.00000000       3.92072078      -0.00000000 
Au      -0.00000000      -3.92072078       0.00000000 
Au      -2.23535903      -0.00000000       0.00000000 
Au       2.23535903      -0.00000000       0.00000000 
Au       4.79708115       0.00000000       0.00000000 
Au      -4.79708115       0.00000000       0.00000000 
Au      -0.00000000       2.66527263      -2.27705483 
Au       0.00000000      -2.66527263      -2.27705483 
Au       0.00000000       2.66527263       2.27705483 
Au       0.00000000      -2.66527263       2.27705483 
Au      -0.00000000       1.31369298      -4.49814720 
Au      -0.00000000      -1.31369298      -4.49814720 
Au       0.00000000       1.31369298       4.49814720 
Au       0.00000000      -1.31369298       4.49814720 
