20
-1545.768118
Au      -0.00000000      -0.00000000       4.44066979 
Au      -0.00000000      -0.00000000      -4.44066979 
Au       0.00000000      -0.00000000      -1.87403893 
Au       0.00000000       0.00000000       1.87403893 
Au      -6.10853712       0.00000000      -0.00000000 
Au       6.10853712      -0.00000000      -0.00000000 
Au       0.00000000      -6.10853712      -0.00000000 
Au      -0.00000000       6.10853712      -0.00000000 
Au      -3.54412452      -0.00000000      -0.00000000 
Au       3.54412452       0.00000000      -0.00000000 
Au      -0.00000000      -3.54412452      -0.00000000 
Au       0.00000000       3.54412452      -0.00000000 
Au       1.29967795       1.29967795      -0.00000000 
Au      -1.29967795      -1.29967795       0.00000000 
Au      -1.29967795       1.29967795      -0.00000000 
Au       1.29967795      -1.29967795       0.00000000 
Au       3.09967413       3.09967413       0.00000000 
Au      -3.09967413      -3.09967413      -0.00000000 
Au      -3.09967413       3.09967413      -0.00000000 
Au       3.09967413      -3.09967413      -0.00000000 
