20
-1548.465157
Au      -0.00000000      -0.00000000       2.23293503 
Au      -0.00000000       0.00000000      -2.23293503 
Au       0.00000000      -0.00000000       4.79158754 
Au       0.00000000      -0.00000000      -4.79158754 
Au      -0.00000000      -1.32433258      -0.00000000 
Au      -0.00000000       1.32433258       0.00000000 
Au      -0.00000000       3.93721161       0.00000000 
Au       0.00000000      -3.93721161       0.00000000 
Au      -2.22681632      -2.65562281      -0.00000000 
Au       2.22681632       2.65562281      -0.00000000 
Au       2.22681632      -2.65562281      -0.00000000 
Au      -2.22681632       2.65562281      -0.00000000 
Au      -4.49161322       3.88370731      -0.00000000 
Au       4.49161322      -3.88370731      -0.00000000 
Au       4.49161322       3.88370731      -0.00000000 
Au      -4.49161322      -3.88370731      -0.00000000 
Au       4.43267439      -1.28960133      -0.00000000 
Au      -4.43267439       1.28960133       0.00000000 
Au      -4.43267439      -1.28960133      -0.00000000 
Au       4.43267439       1.28960133       0.00000000 
