20
-1549.354072
Au      -0.00000000      -0.00000000      -1.92090141 
Au       0.00000000      -0.00000000       1.92090141 
Au       0.00000000       0.00000000      -4.48848231 
Au      -0.00000000      -0.00000000       4.48848231 
Au       0.00000000       6.14448238       0.00000000 
Au      -0.00000000      -6.14448238      -0.00000000 
Au       0.00000000       8.71675151      -0.00000000 
Au      -0.00000000      -8.71675151      -0.00000000 
Au      -3.51482963      -2.59250991      -0.00000000 
Au       3.51482963       2.59250991      -0.00000000 
Au       3.51482963      -2.59250991       0.00000000 
Au      -3.51482963       2.59250991       0.00000000 
Au       1.29147223       1.29647599      -0.00000000 
Au      -1.29147223      -1.29647599       0.00000000 
Au      -1.29147223       1.29647599      -0.00000000 
Au       1.29147223      -1.29647599      -0.00000000 
Au       1.28878661      -3.89147115       0.00000000 
Au      -1.28878661       3.89147115       0.00000000 
Au      -1.28878661      -3.89147115      -0.00000000 
Au       1.28878661       3.89147115       0.00000000 
