20
-1550.081088
Au       0.00000000      -0.00000000      -1.38396496 
Au       0.00000000      -0.00000000       1.38396496 
Au      -0.00000000       0.00000000      -3.95090555 
Au      -0.00000000       0.00000000       3.95090555 
Au       0.00000000       6.49955868      -0.00000000 
Au       0.00000000      -6.49955868      -0.00000000 
Au       0.00000000       3.93377567      -0.00000000 
Au       0.00000000      -3.93377567       0.00000000 
Au       1.41549680       1.73488373      -0.00000000 
Au      -1.41549680      -1.73488373       0.00000000 
Au      -1.41549680       1.73488373       0.00000000 
Au       1.41549680      -1.73488373      -0.00000000 
Au      -3.99059055       1.32045533       0.00000000 
Au       3.99059055      -1.32045533      -0.00000000 
Au       3.99059055       1.32045533      -0.00000000 
Au      -3.99059055      -1.32045533       0.00000000 
Au      -2.57507293       0.00000000       1.75708738 
Au       2.57507293       0.00000000       1.75708738 
Au       2.57507293      -0.00000000      -1.75708738 
Au      -2.57507293       0.00000000      -1.75708738 
