20
-1548.409178
Au       0.00000000       0.00000000      -1.30092682 
Au      -0.00000000       0.00000000       1.30092682 
Au      -0.00000000      -0.00000000      -3.87363221 
Au       0.00000000      -0.00000000       3.87363221 
Au       0.00000000       2.23327789      -0.00000000 
Au      -0.00000000      -2.23327789      -0.00000000 
Au       0.00000000       4.82334351      -0.00000000 
Au      -0.00000000      -4.82334351       0.00000000 
Au       3.74739054      -1.36550054       0.00000000 
Au      -3.74739054       1.36550054      -0.00000000 
Au      -3.74739054      -1.36550054      -0.00000000 
Au       3.74739054       1.36550054       0.00000000 
Au      -2.28805542      -3.54486377      -0.00000000 
Au       2.28805542       3.54486377       0.00000000 
Au       2.28805542      -3.54486377       0.00000000 
Au      -2.28805542       3.54486377      -0.00000000 
Au       2.49974293       0.00000000       1.82187969 
Au      -2.49974293      -0.00000000       1.82187969 
Au      -2.49974293      -0.00000000      -1.82187969 
Au       2.49974293       0.00000000      -1.82187969 
