20
-1545.768123
Au      -0.00000000      -0.00000000       1.87408634 
Au       0.00000000      -0.00000000      -1.87408634 
Au       0.00000000       0.00000000      -4.44080120 
Au       0.00000000       0.00000000       4.44080120 
Au      -4.38338161       0.00000000       0.00000000 
Au       4.38338161      -0.00000000       0.00000000 
Au       0.00000000      -4.38338161      -0.00000000 
Au      -0.00000000       4.38338161      -0.00000000 
Au       1.83788310       0.00000000       0.00000000 
Au      -1.83788310      -0.00000000      -0.00000000 
Au       0.00000000       1.83788311      -0.00000000 
Au      -0.00000000      -1.83788311       0.00000000 
Au       2.50591208       2.50591208       0.00000000 
Au      -2.50591208      -2.50591208      -0.00000000 
Au      -2.50591208       2.50591208      -0.00000000 
Au       2.50591208      -2.50591208       0.00000000 
Au       4.31916663       4.31916664      -0.00000000 
Au      -4.31916663      -4.31916664      -0.00000000 
Au      -4.31916663       4.31916664      -0.00000000 
Au       4.31916663      -4.31916664      -0.00000000 
