20
-1552.032862
Au      -0.00000000      -0.00000000       5.20571456 
Au      -0.00000000       0.00000000      -5.20571456 
Au       0.00000000      -0.00000000      -2.56661109 
Au       0.00000000       0.00000000       2.56661109 
Au       0.00000000      -3.84123231      -0.00000000 
Au      -0.00000000       3.84123231      -0.00000000 
Au      -0.00000000       1.26280603       0.00000000 
Au       0.00000000      -1.26280603      -0.00000000 
Au       2.31694495       2.39267774      -0.00000000 
Au      -2.31694495      -2.39267774       0.00000000 
Au      -2.31694495       2.39267774       0.00000000 
Au       2.31694495      -2.39267774      -0.00000000 
Au       2.26700763       0.00000000      -1.28719951 
Au      -2.26700763       0.00000000      -1.28719951 
Au      -2.26700763       0.00000000       1.28719951 
Au       2.26700763       0.00000000       1.28719951 
Au      -2.25280907      -0.00000000       3.90611472 
Au       2.25280907      -0.00000000       3.90611472 
Au       2.25280907       0.00000000      -3.90611472 
Au      -2.25280907       0.00000000      -3.90611472 
