20
-1552.032866
Au       0.00000000      -0.00000000       2.56692277 
Au       0.00000001       0.00000000      -2.56692277 
Au       0.00000000      -0.00000000       5.20600155 
Au       0.00000001       0.00000000      -5.20600155 
Au      -0.00000009       3.84107053       0.00000000 
Au       0.00000008      -3.84107053       0.00000001 
Au       0.00000023      -1.26278095      -0.00000001 
Au      -0.00000023       1.26278095      -0.00000000 
Au       2.31703133       2.39257472       0.00000000 
Au      -2.31703134      -2.39257472       0.00000000 
Au      -2.31703162       2.39257500      -0.00000000 
Au       2.31703161      -2.39257500       0.00000000 
Au       2.25300939       0.00000002      -3.90628359 
Au      -2.25300940      -0.00000002      -3.90628360 
Au      -2.25300939      -0.00000002       3.90628359 
Au       2.25300939       0.00000002       3.90628360 
Au       2.26667725      -0.00000019      -1.28720274 
Au      -2.26667725       0.00000019      -1.28720275 
Au      -2.26667725       0.00000019       1.28720275 
Au       2.26667725      -0.00000019       1.28720275 
