20
-1550.001686
Au      -0.00000000       0.00000000      -3.56253036 
Au       0.00000000      -0.00000000       3.56253036 
Au      -0.00000000       0.00000000       6.11546448 
Au       0.00000000      -0.00000000      -6.11546448 
Au       0.00000000      -4.46677511       0.00000000 
Au       0.00000000       4.46677511      -0.00000000 
Au      -0.00000000       1.90051243       0.00000000 
Au      -0.00000000      -1.90051243      -0.00000000 
Au       1.31728072      -0.00000000       1.30476245 
Au      -1.31728072       0.00000000       1.30476245 
Au      -1.31728072       0.00000000      -1.30476245 
Au       1.31728072       0.00000000      -1.30476245 
Au       2.60590584      -0.00000000       3.55626645 
Au      -2.60590584       0.00000000       3.55626645 
Au      -2.60590584       0.00000000      -3.55626645 
Au       2.60590584      -0.00000000      -3.55626645 
Au       3.93145107      -0.00000000       1.30438879 
Au      -3.93145107       0.00000000       1.30438879 
Au      -3.93145107       0.00000000      -1.30438879 
Au       3.93145107      -0.00000000      -1.30438879 
