20
-1548.139366
Au       0.00000000      -0.00000000       1.29376142 
Au      -0.00000000      -0.00000000      -1.29376142 
Au       0.00000000      -0.00000000      -3.89326487 
Au       0.00000000      -0.00000000       3.89326487 
Au      -0.00000000      -4.80992576      -0.00000000 
Au       0.00000000       4.80992576      -0.00000000 
Au      -0.00000000      -2.25051373      -0.00000000 
Au       0.00000000       2.25051373      -0.00000000 
Au      -2.59008188      -0.00000000       1.28744634 
Au       2.59008188       0.00000000       1.28744634 
Au       2.59008188       0.00000000      -1.28744634 
Au      -2.59008188      -0.00000000      -1.28744634 
Au      -4.82866082      -0.00000000      -2.57136487 
Au       4.82866082       0.00000000      -2.57136487 
Au       4.82866082       0.00000000       2.57136487 
Au      -4.82866082      -0.00000000       2.57136487 
Au       2.58188458       0.00000000       3.86690805 
Au      -2.58188458      -0.00000000       3.86690805 
Au      -2.58188458      -0.00000000      -3.86690805 
Au       2.58188458       0.00000000      -3.86690805 
