20
-1550.760129
Au      -0.00000000      -0.00000000      -4.90700583 
Au      -0.00000000       0.00000000       4.90700583 
Au       0.00000000       0.00000000       2.22802982 
Au      -0.00000000      -0.00000000      -2.22802982 
Au      -0.00000000       5.87447060       0.00000000 
Au       0.00000000      -5.87447060      -0.00000000 
Au       0.00000000       1.37581719      -0.00000000 
Au      -0.00000000      -1.37581719       0.00000000 
Au      -0.00000000       3.65052922       1.31897663 
Au      -0.00000000      -3.65052922       1.31897663 
Au      -0.00000000       3.65052922      -1.31897663 
Au      -0.00000000      -3.65052922      -1.31897663 
Au       0.00000000       2.31130967      -6.08438060 
Au       0.00000000      -2.31130967      -6.08438060 
Au       0.00000000       2.31130967       6.08438060 
Au      -0.00000000      -2.31130967       6.08438060 
Au       0.00000000       2.25766368       3.50659071 
Au      -0.00000000      -2.25766368       3.50659071 
Au      -0.00000000       2.25766368      -3.50659071 
Au      -0.00000000      -2.25766368      -3.50659071 
