20
-1550.21064
Au       0.00000000      -0.00000000       1.28427564 
Au       0.00000000      -0.00000000      -1.28427564 
Au      -0.00000000      -0.00000000      -3.93343025 
Au       0.00000000      -0.00000000       3.93343023 
Au      -2.27617736      -0.00002506      -0.00000000 
Au       2.27617736       0.00002506      -0.00000000 
Au      -0.00002008      -2.25103835      -0.00000001 
Au       0.00002008       2.25103835      -0.00000001 
Au       4.86531487       0.00000600       0.00000001 
Au      -4.86531487      -0.00000600       0.00000001 
Au       0.00000721       4.81019239       0.00000003 
Au      -0.00000721      -4.81019239       0.00000003 
Au      -2.25053398       0.00008462      -2.64199468 
Au       2.25053398      -0.00008462      -2.64199468 
Au       0.00008328      -2.24762769      -2.59429906 
Au      -0.00008328       2.24762769      -2.59429906 
Au       2.25053399      -0.00008462       2.64199468 
Au      -2.25053399       0.00008462       2.64199468 
Au       0.00008328      -2.24762771       2.59429905 
Au      -0.00008328       2.24762771       2.59429905 
