20
-1548.655693
Au      -0.00000000      -0.00000000      -2.55196102 
Au       0.00000000       0.00000000       2.55196102 
Au       0.00000000       0.00000000      -5.19301430 
Au       0.00000000      -0.00000000       5.19301430 
Au      -0.00000000      -4.47381361       0.00000000 
Au       0.00000000       4.47381361      -0.00000000 
Au       0.00000000       7.05720961      -0.00000000 
Au      -0.00000000      -7.05720961       0.00000000 
Au      -0.00000000       5.78249098      -2.25026265 
Au      -0.00000000      -5.78249098      -2.25026265 
Au      -0.00000000       5.78249098       2.25026265 
Au      -0.00000000      -5.78249098       2.25026265 
Au       0.00000000      -2.26126388      -1.30013955 
Au      -0.00000000       2.26126388      -1.30013955 
Au       0.00000000      -2.26126388       1.30013955 
Au      -0.00000000       2.26126388       1.30013955 
Au       0.00000000      -2.23646854       3.88267761 
Au      -0.00000000       2.23646854       3.88267761 
Au       0.00000000      -2.23646854      -3.88267761 
Au      -0.00000000       2.23646854      -3.88267761 
