20
-1551.346542
Au       0.00000000      -0.00000000       2.26600810 
Au       0.00000000      -0.00000000      -2.26600810 
Au       0.00000000       0.00000000       4.85815679 
Au      -0.00000000       0.00000000      -4.85815679 
Au       0.00000000      -3.97857754      -0.00000000 
Au      -0.00000000       3.97857754       0.00000000 
Au      -0.00000000      -1.30695679      -0.00000000 
Au      -0.00000000       1.30695679       0.00000000 
Au       0.00000000      -2.59039592      -2.25202225 
Au       0.00000000       2.59039592      -2.25202225 
Au       0.00000000      -2.59039592       2.25202225 
Au       0.00000000       2.59039592       2.25202225 
Au      -0.00000000       5.18699553       2.31737406 
Au      -0.00000000      -5.18699553       2.31737406 
Au      -0.00000000       5.18699553      -2.31737406 
Au      -0.00000000      -5.18699553      -2.31737406 
Au       0.00000000      -2.56983732       4.82968044 
Au       0.00000000       2.56983732       4.82968044 
Au       0.00000000      -2.56983732      -4.82968044 
Au       0.00000000       2.56983732      -4.82968044 
