20
-1548.295444
Au       0.00000000      -0.00000000      -3.95759337 
Au      -0.00000000       0.00000000       3.95759337 
Au      -0.00000000       0.00000000       1.30951616 
Au       0.00000000      -0.00000000      -1.30951616 
Au      -0.00000000      -2.26424433       0.00000000 
Au      -0.00000000       2.26424433      -0.00000000 
Au      -0.00000000       4.85043429       0.00000000 
Au      -0.00000000      -4.85043429      -0.00000000 
Au       2.57311742       0.00000000      -3.88536111 
Au      -2.57311742       0.00000000      -3.88536111 
Au      -2.57311742      -0.00000000       3.88536111 
Au       2.57311742       0.00000000       3.88536111 
Au       2.59003113       0.00000000      -1.29286981 
Au      -2.59003112       0.00000000      -1.29286981 
Au      -2.59003113      -0.00000000       1.29286981 
Au       2.59003113       0.00000000       1.29286981 
Au      -0.00000000       2.26709784      -2.64007420 
Au      -0.00000000      -2.26709784      -2.64007420 
Au       0.00000000       2.26709784       2.64007420 
Au      -0.00000000      -2.26709784       2.64007420 
