20
-1548.913722
Au      -0.00000000      -0.00000000       4.78108440 
Au       0.00000000       0.00000000      -4.78108440 
Au       0.00000000       0.00000000       2.21211626 
Au       0.00000000      -0.00000000      -2.21211626 
Au       0.00000000       3.89881702      -0.00000000 
Au      -0.00000000      -3.89881702       0.00000000 
Au       0.00000000      -1.27984661      -0.00000000 
Au       0.00000000       1.27984661      -0.00000000 
Au       2.30188940       0.00000000       3.56106298 
Au      -2.30188940       0.00000000       3.56106298 
Au      -2.30188940      -0.00000000      -3.56106298 
Au       2.30188940       0.00000000      -3.56106298 
Au      -3.59308950      -0.00000000      -1.29969183 
Au       3.59308950      -0.00000000      -1.29969183 
Au       3.59308950       0.00000000       1.29969183 
Au      -3.59308950       0.00000000       1.29969183 
Au      -0.00000000      -2.57535850       2.23022289 
Au      -0.00000000       2.57535850       2.23022289 
Au       0.00000000      -2.57535850      -2.23022289 
Au       0.00000000       2.57535850      -2.23022289 
