20
-1547.112538
Au      -0.00000000       0.00000001       3.99189564 
Au      -0.00000000      -0.00000001      -3.99189559 
Au      -0.00000000      -0.00000000      -1.28378275 
Au      -0.00000000       0.00000000       1.28378273 
Au       0.00000000      -2.24327453       0.00000001 
Au      -0.00000000       2.24327453      -0.00000001 
Au       0.00000000       4.79064073      -0.00000002 
Au       0.00000000      -4.79064073      -0.00000004 
Au      -2.21025781       0.00000000       2.66179240 
Au       2.21025781      -0.00000002       2.66179240 
Au       2.21025782       0.00000003      -2.66179239 
Au      -2.21025782       0.00000000      -2.66179239 
Au      -0.00000001       2.20650744       2.61188508 
Au       0.00000001      -2.20650743       2.61188509 
Au       0.00000001       2.20650743      -2.61188508 
Au      -0.00000001      -2.20650745      -2.61188507 
Au      -0.00000000      -3.86841151      -4.57536144 
Au       0.00000000       3.86841151      -4.57536143 
Au       0.00000000      -3.86841152       4.57536143 
Au      -0.00000000       3.86841152       4.57536143 
