20
-1551.604581
Au      -0.00000000      -0.00000000       3.88773839 
Au      -0.00000000       0.00000000      -3.88773839 
Au      -0.00000000       0.00000000       1.27055941 
Au       0.00000000      -0.00000000      -1.27055941 
Au       0.00000000      -2.57579025       0.00000000 
Au       0.00000000       2.57579025      -0.00000000 
Au       0.00000000      -5.16650253      -0.00000000 
Au      -0.00000000       5.16650253      -0.00000000 
Au      -2.23478086       1.29360744       0.00000000 
Au       2.23478086      -1.29360744      -0.00000000 
Au       2.23478086       1.29360744       0.00000000 
Au      -2.23478086      -1.29360744      -0.00000000 
Au       1.82331504       1.35149878       2.57975409 
Au      -1.82331504      -1.35149878       2.57975409 
Au      -1.82331504       1.35149878      -2.57975409 
Au       1.82331504      -1.35149878      -2.57975409 
Au      -1.82331504      -1.35149878      -2.57975409 
Au       1.82331504       1.35149878      -2.57975409 
Au       1.82331504      -1.35149878       2.57975409 
Au      -1.82331504       1.35149878       2.57975409 
