20
-1551.374441
Au       4.14046789       0.00000000       1.55719021 
Au      -4.14046789      -0.00000000       1.55719021 
Au       0.00000000       4.14046789       1.55719021 
Au      -0.00000000      -4.14046789       1.55719021 
Au      -1.83604901       0.00000000       2.72433894 
Au       1.83604901       0.00000000       2.72433894 
Au       0.00000000      -1.83604901       2.72433894 
Au       0.00000000       1.83604901       2.72433894 
Au       3.55257712       0.00000000      -2.19502835 
Au      -3.55257712      -0.00000000      -2.19502835 
Au       0.00000000       3.55257712      -2.19502835 
Au       0.00000000      -3.55257712      -2.19502835 
Au       1.99840771       0.00000000       0.05002162 
Au      -1.99840771       0.00000000       0.05002162 
Au       0.00000000       1.99840771       0.05002162 
Au       0.00000000      -1.99840771       0.05002162 
Au      -1.31918808      -1.31918808      -2.13652242 
Au       1.31918808       1.31918808      -2.13652242 
Au       1.31918808      -1.31918808      -2.13652242 
Au      -1.31918808       1.31918808      -2.13652242 
