20
-1548.002142
Au       0.00000000       0.00000000      -3.90910239 
Au       0.00000000       0.00000000       3.90910239 
Au       0.00000000      -0.00000000       1.33082493 
Au       0.00000000      -0.00000000      -1.33082493 
Au      -1.28329277       1.86814794      -0.00000000 
Au       1.28329277      -1.86814794      -0.00000000 
Au       1.28329277       1.86814794      -0.00000000 
Au      -1.28329277      -1.86814794       0.00000000 
Au      -2.99503818      -3.78359717      -0.00000000 
Au       2.99503818       3.78359717       0.00000000 
Au       2.99503818      -3.78359717      -0.00000000 
Au      -2.99503818       3.78359717       0.00000000 
Au       3.82177289      -1.29055048      -0.00000000 
Au      -3.82177289       1.29055048      -0.00000000 
Au      -3.82177289      -1.29055048      -0.00000000 
Au       3.82177289       1.29055048      -0.00000000 
Au      -5.51367677       3.27632212      -0.00000000 
Au       5.51367677      -3.27632212       0.00000000 
Au       5.51367677       3.27632212       0.00000000 
Au      -5.51367677      -3.27632212      -0.00000000 
