20
-1548.702202
Au       0.00000000      -0.00000000      -1.32533618 
Au       0.00000000      -0.00000000       1.32533618 
Au       0.00000000      -0.00000000      -3.90567985 
Au       0.00000000      -0.00000000       3.90567985 
Au       5.31249374       1.28967076       0.00000000 
Au      -5.31249374      -1.28967076       0.00000000 
Au      -5.31249374       1.28967076       0.00000000 
Au       5.31249374      -1.28967076      -0.00000000 
Au       3.52566900       3.13966475      -0.00000000 
Au      -3.52566900      -3.13966475      -0.00000000 
Au      -3.52566900       3.13966475      -0.00000000 
Au       3.52566900      -3.13966475      -0.00000000 
Au      -1.29997981       4.45683123      -0.00000000 
Au       1.29997981      -4.45683123       0.00000000 
Au       1.29997981       4.45683123       0.00000000 
Au      -1.29997981      -4.45683123       0.00000000 
Au       1.28866049       1.85636647       0.00000000 
Au      -1.28866049      -1.85636647       0.00000000 
Au      -1.28866049       1.85636647       0.00000000 
Au       1.28866049      -1.85636647       0.00000000 
