20
-1548.608567
Au       0.00000000       0.00000000      -2.24849195 
Au       0.00000000       0.00000000       2.24849195 
Au      -0.00000000      -1.31355319       0.00000000 
Au       0.00000000       1.31355319      -0.00000000 
Au      -1.28787956       3.56423707       0.00000000 
Au       1.28787956      -3.56423707      -0.00000000 
Au       1.28787956       3.56423707      -0.00000000 
Au      -1.28787956      -3.56423707       0.00000000 
Au      -1.29917939       6.13240960      -0.00000000 
Au       1.29917939      -6.13240960      -0.00000000 
Au       1.29917939       6.13240960       0.00000000 
Au      -1.29917939      -6.13240960       0.00000000 
Au       3.88352503      -3.59774662      -0.00000000 
Au      -3.88352503       3.59774662       0.00000000 
Au      -3.88352503      -3.59774662       0.00000000 
Au       3.88352503       3.59774662       0.00000000 
Au       2.62554225       1.31458294       0.00000000 
Au      -2.62554225      -1.31458294      -0.00000000 
Au      -2.62554225       1.31458294       0.00000000 
Au       2.62554225      -1.31458294      -0.00000000 
