20
-1550.233496
Au       0.00000000      -0.00000000      -1.90555217 
Au      -0.00000000       0.00000000       1.90555217 
Au      -0.00000000       6.17423527      -0.00000000 
Au       0.00000000      -6.17423527      -0.00000000 
Au      -1.28878083      -3.92110430       0.00000000 
Au       1.28878083       3.92110430      -0.00000000 
Au       1.28878083      -3.92110430      -0.00000000 
Au      -1.28878083       3.92110430      -0.00000000 
Au      -3.89428499      -1.28794995      -0.00000000 
Au       3.89428499       1.28794995       0.00000000 
Au       3.89428499      -1.28794995       0.00000000 
Au      -3.89428499       1.28794995      -0.00000000 
Au       3.87148803       3.87000739       0.00000000 
Au      -3.87148803      -3.87000739       0.00000000 
Au      -3.87148803       3.87000739       0.00000000 
Au       3.87148803      -3.87000739       0.00000000 
Au      -1.29837826      -1.30810429      -0.00000000 
Au       1.29837826       1.30810429       0.00000000 
Au       1.29837826      -1.30810429       0.00000000 
Au      -1.29837826       1.30810429      -0.00000000 
