20
-1549.946961
Au       0.00000000      -6.15917297      -0.00000000 
Au       0.00000000       6.15917297       0.00000000 
Au      -0.00000000      -3.54830480       0.00000000 
Au      -0.00000000       3.54830480       0.00000000 
Au      -1.30582688      -1.30252226       0.00000000 
Au       1.30582688       1.30252226       0.00000000 
Au       1.30582688      -1.30252226       0.00000000 
Au      -1.30582688       1.30252226       0.00000000 
Au       3.53164970       2.61452704      -0.00000000 
Au      -3.53164970      -2.61452704       0.00000000 
Au      -3.53164970       2.61452704      -0.00000000 
Au       3.53164970      -2.61452704      -0.00000000 
Au      -4.82290225      -4.85895355      -0.00000000 
Au       4.82290225       4.85895355      -0.00000000 
Au       4.82290225      -4.85895355      -0.00000000 
Au      -4.82290225       4.85895355      -0.00000000 
Au       2.23817559       4.86787215      -0.00000000 
Au      -2.23817559      -4.86787215      -0.00000000 
Au      -2.23817559       4.86787215       0.00000000 
Au       2.23817559      -4.86787215      -0.00000000 
