20
-1547.290644
Au       0.00000000      -0.00000000       1.27955108 
Au       0.00000000       0.00000000      -1.27955108 
Au      -0.00000000      -0.00000000      -3.84107257 
Au       0.00000000      -0.00000000       3.84107257 
Au      -0.00000000       2.26250059      -0.00000000 
Au      -0.00000000      -2.26250059      -0.00000000 
Au       0.00000000       4.82158047       0.00000000 
Au       0.00000000      -4.82158047       0.00000000 
Au      -2.24066735       0.00000000       2.55958883 
Au       2.24066735       0.00000000       2.55958883 
Au       2.24066735      -0.00000000      -2.55958883 
Au      -2.24066735       0.00000000      -2.55958883 
Au       4.07780084      -1.31399203      -1.29560657 
Au      -4.07780084       1.31399203      -1.29560657 
Au      -4.07780084      -1.31399202       1.29560657 
Au       4.07780084       1.31399202       1.29560657 
Au      -4.07780084       1.31399202       1.29560657 
Au       4.07780084      -1.31399202       1.29560657 
Au       4.07780084       1.31399203      -1.29560657 
Au      -4.07780084      -1.31399203      -1.29560657 
