20
-1553.018359
Au       0.00028256       0.04112950       3.85175573 
Au       0.00035818       0.04139413      -3.85178632 
Au      -0.02295958       0.01048725       1.27660170 
Au      -0.02293296       0.01052087      -1.27644041 
Au       2.58924656       1.70258877       0.00012211 
Au      -2.61884263      -1.72319843      -0.00008827 
Au       1.83822511       4.18992680      -0.00067733 
Au      -1.86173658      -4.20798551       0.00025902 
Au      -2.20253752       0.84654898       0.00000893 
Au       2.16317080      -0.86653373       0.00006916 
Au      -0.02362059      -2.35138408      -0.00007826 
Au       0.00727829       2.33104512       0.00005290 
Au      -2.34790180      -0.47167803      -2.36593811 
Au       2.32349089       0.40961437      -2.34509715 
Au      -0.40124374      -2.24023502      -2.61547456 
Au       0.50285100       2.29028691      -2.58275131 
Au       2.32343872       0.40956869       2.34529429 
Au      -2.34793265      -0.47184520       2.36588222 
Au      -0.40125703      -2.24036494       2.61529143 
Au       0.50262298       2.29011354       2.58299422 
