20
-1549.49443
Au      -0.00000010      -0.00000000      -6.07841900 
Au       0.00000010      -0.00000000       6.07841998 
Au       0.00000002       0.00000000      -3.50891568 
Au      -0.00000002       0.00000000       3.50891491 
Au       1.30369346       0.00000000       1.29218794 
Au      -1.30369297       0.00000000       1.29218781 
Au      -1.30368995       0.00000000      -1.29218926 
Au       1.30368946       0.00000000      -1.29218913 
Au      -2.64626899       0.00000000      -3.50888595 
Au       2.64626937      -0.00000000      -3.50888533 
Au       2.64626785       0.00000000       3.50888777 
Au      -2.64626822       0.00000000       3.50888715 
Au      -2.58202624      -0.00000000       6.11275013 
Au       2.58202639      -0.00000000       6.11275052 
Au       2.58202654      -0.00000000      -6.11275027 
Au      -2.58202669       0.00000000      -6.11275066 
Au      -4.85411418       0.00000000       4.87487410 
Au       4.85411422       0.00000000       4.87487372 
Au       4.85410822      -0.00000000      -4.87487456 
Au      -4.85410826      -0.00000000      -4.87487419 
