20
-1548.963051
Au       0.00000005       0.00000000      -1.28874877 
Au      -0.00000005       0.00000000       1.28874877 
Au      -0.00000013      -0.00000000       3.86836508 
Au       0.00000013      -0.00000000      -3.86836508 
Au      -5.17605346      -0.00000000      -1.30412725 
Au       5.17605358      -0.00000000      -1.30412710 
Au       5.17605346      -0.00000000       1.30412725 
Au      -5.17605358      -0.00000000       1.30412710 
Au      -2.58295393       0.00000000      -3.88542290 
Au       2.58295408       0.00000000      -3.88542302 
Au       2.58295393       0.00000000       3.88542290 
Au      -2.58295408       0.00000000       3.88542302 
Au      -2.58899533       0.00000000      -1.30119998 
Au       2.58899532       0.00000000      -1.30120002 
Au       2.58899533       0.00000000       1.30119998 
Au      -2.58899532       0.00000000       1.30120002 
Au       1.30070248      -0.00000000       6.13705220 
Au      -1.30070210      -0.00000000       6.13705171 
Au      -1.30070248      -0.00000000      -6.13705220 
Au       1.30070210      -0.00000000      -6.13705171 
