20
-1550.69955
Au      -0.00000004       0.00000000       1.29101274 
Au       0.00000003       0.00000000      -1.29101274 
Au      -0.00000000       0.00000000      -3.87901283 
Au       0.00000000      -0.00000000       3.87901283 
Au      -2.59623649      -0.00000000       3.89376181 
Au       2.59623649      -0.00000000       3.89376181 
Au       2.59623649      -0.00000000      -3.89376181 
Au      -2.59623649       0.00000000      -3.89376181 
Au      -2.55316328       0.00000000      -1.30136242 
Au       2.55316325      -0.00000000      -1.30136242 
Au       2.55316328      -0.00000000       1.30136242 
Au      -2.55316325       0.00000000       1.30136242 
Au       3.88862091       0.00000000      -6.14221209 
Au      -3.88862091      -0.00000000      -6.14221209 
Au      -3.88862091      -0.00000000       6.14221209 
Au       3.88862091       0.00000000       6.14221209 
Au      -1.29554362      -0.00000000      -6.18368085 
Au       1.29554362       0.00000000      -6.18368085 
Au       1.29554362      -0.00000000       6.18368085 
Au      -1.29554362      -0.00000000       6.18368085 
