20
-1550.268669
Au      -0.00000000      -0.00000000       3.60226165 
Au       0.00000000      -0.00000000      -3.60226165 
Au      -0.00000000       1.90553688       0.00000000 
Au       0.00000000      -1.90553688      -0.00000000 
Au      -4.66764167       0.00000000       5.09598986 
Au       4.66764167      -0.00000000       5.09598986 
Au       4.66764167       0.00000000      -5.09598986 
Au      -4.66764167       0.00000000      -5.09598986 
Au       2.61118914      -0.00000000       3.55726951 
Au      -2.61118914      -0.00000000       3.55726951 
Au      -2.61118914      -0.00000000      -3.55726951 
Au       2.61118914       0.00000000      -3.55726951 
Au      -1.29611957      -0.00000000       1.31563398 
Au       1.29611957      -0.00000000       1.31563398 
Au       1.29611957       0.00000000      -1.31563398 
Au      -1.29611957       0.00000000      -1.31563398 
Au      -3.88313882      -0.00000000      -1.28496213 
Au       3.88313882       0.00000000      -1.28496213 
Au       3.88313882      -0.00000000       1.28496213 
Au      -3.88313882       0.00000000       1.28496213 
