20
-1550.807171
Au      -0.00000000       0.00000001      -3.11413616 
Au       0.00000000       0.00000001       3.11413616 
Au      -0.00000000      -1.29573216      -0.00000000 
Au      -0.00000000       1.29573211      -0.00000000 
Au       1.87257613      -0.00000002       1.29440511 
Au      -1.87257613      -0.00000002       1.29440510 
Au      -1.87257613      -0.00000002      -1.29440510 
Au       1.87257613      -0.00000002      -1.29440511 
Au       4.48744964       0.00000003       1.30068451 
Au      -4.48744964       0.00000003       1.30068451 
Au      -4.48744964       0.00000003      -1.30068451 
Au       4.48744964       0.00000003      -1.30068450 
Au       2.52759468       0.00000001      -3.81516246 
Au      -2.52759468       0.00000001      -3.81516246 
Au      -2.52759468       0.00000001       3.81516246 
Au       2.52759468       0.00000001       3.81516246 
Au      -5.12211865      -0.00000001      -3.81638301 
Au       5.12211865      -0.00000001      -3.81638300 
Au       5.12211865      -0.00000001       3.81638301 
Au      -5.12211865      -0.00000001       3.81638300 
