20
-1552.851497
Au      -0.00000000      -0.00000000      -3.55777909 
Au       0.00000000       0.00000000       3.55777909 
Au       0.00000000       1.89962898      -0.00000000 
Au      -0.00000000      -1.89962898       0.00000000 
Au      -1.31233588       0.00000000       1.30632689 
Au       1.31233588       0.00000000       1.30632689 
Au       1.31233588      -0.00000000      -1.30632689 
Au      -1.31233588      -0.00000000      -1.30632689 
Au       3.91920221       0.00000000      -1.29986331 
Au      -3.91920221       0.00000000      -1.29986331 
Au      -3.91920221      -0.00000000       1.29986331 
Au       3.91920221      -0.00000000       1.29986331 
Au       2.64146207       0.00000000      -3.58050685 
Au      -2.64146207       0.00000000      -3.58050685 
Au      -2.64146207      -0.00000000       3.58050685 
Au       2.64146207      -0.00000000       3.58050685 
Au       1.30071767      -0.00000000      -5.82605780 
Au      -1.30071767      -0.00000000      -5.82605780 
Au      -1.30071767       0.00000000       5.82605780 
Au       1.30071767       0.00000000       5.82605780 
