20
-1549.11832
Au      -0.00000000      -1.30980932      -0.00000000 
Au      -0.00000000       1.30980932       0.00000000 
Au      -0.00000000       3.88910331       0.00000000 
Au       0.00000000      -3.88910331      -0.00000000 
Au       1.28482069       0.00000000      -3.86662929 
Au      -1.28482069       0.00000000      -3.86662929 
Au      -1.28482069      -0.00000000       3.86662929 
Au       1.28482069       0.00000000       3.86662929 
Au       4.50564589       0.00000000      -1.28676089 
Au      -4.50564589       0.00000000      -1.28676089 
Au      -4.50564589      -0.00000000       1.28676089 
Au       4.50564589      -0.00000000       1.28676089 
Au      -1.90588806       0.00000000      -1.33515507 
Au       1.90588806       0.00000000      -1.33515507 
Au       1.90588806      -0.00000000       1.33515507 
Au      -1.90588806      -0.00000000       1.33515507 
Au       3.85236894       0.00000000      -3.77216737 
Au      -3.85236894       0.00000000      -3.77216737 
Au      -3.85236894       0.00000000       3.77216737 
Au       3.85236894      -0.00000000       3.77216737 
