20
-1549.12655
Au      -0.00000000       1.29992740      -0.00000000 
Au      -0.00000000      -1.29992740      -0.00000000 
Au      -0.00000000      -3.87926557      -0.00000000 
Au      -0.00000000       3.87926557      -0.00000000 
Au      -4.56830946      -0.00000000       1.28573205 
Au       4.56830946       0.00000000       1.28573205 
Au       4.56830946       0.00000000      -1.28573205 
Au      -4.56830946      -0.00000000      -1.28573205 
Au       1.28320512      -0.00000000      -3.83859807 
Au      -1.28320512      -0.00000000      -3.83859807 
Au      -1.28320512      -0.00000000       3.83859807 
Au       1.28320512       0.00000000       3.83859807 
Au       1.96831691       0.00000000       1.32473329 
Au      -1.96831691      -0.00000000       1.32473329 
Au      -1.96831691       0.00000000      -1.32473329 
Au       1.96831691       0.00000000      -1.32473329 
Au       3.84915797       0.00000000      -3.75125743 
Au      -3.84915797      -0.00000000      -3.75125743 
Au      -3.84915797      -0.00000000       3.75125743 
Au       3.84915797       0.00000000       3.75125743 
