20
-1542.926861
Au      -0.00000000      -0.00000000      -1.80701439 
Au       0.00000000       0.00000000       1.80701439 
Au      -0.00000000       0.00000000      -4.37796485 
Au       0.00000000      -0.00000000       4.37796485 
Au       1.89333993      -0.00000000      -0.00000000 
Au      -1.89333993       0.00000000       0.00000000 
Au       0.00000000       1.89333993      -0.00000000 
Au      -0.00000000      -1.89333993       0.00000000 
Au       4.46052322       0.00000000      -0.00000000 
Au      -4.46052322       0.00000000       0.00000000 
Au      -0.00000000       4.46052322       0.00000000 
Au      -0.00000000      -4.46052322      -0.00000000 
Au       6.71402581      -0.00000000       1.28084246 
Au      -6.71402581       0.00000000       1.28084246 
Au       0.00000000       6.71402581       1.28084246 
Au       0.00000000      -6.71402581       1.28084246 
Au      -6.71402581       0.00000000      -1.28084246 
Au       6.71402581      -0.00000000      -1.28084246 
Au       0.00000000       6.71402581      -1.28084246 
Au      -0.00000000      -6.71402581      -1.28084246 
