20
-1545.23996
Au       0.00000000      -0.00000000      -1.29139848 
Au       0.00000000       0.00000000       1.29139848 
Au      -0.00000000       0.00000000       3.91788355 
Au       0.00000000      -0.00000000      -3.91788355 
Au       0.00000000      -4.80846284      -0.00000000 
Au       0.00000000       4.80846284      -0.00000000 
Au      -0.00000000      -2.23851779       0.00000000 
Au       0.00000000       2.23851779       0.00000000 
Au      -0.00000000      -2.25611177       2.60169305 
Au      -0.00000000       2.25611177       2.60169305 
Au      -0.00000000      -2.25611177      -2.60169305 
Au       0.00000000       2.25611177      -2.60169305 
Au       1.28856157      -4.22749825       3.71188924 
Au      -1.28856157       4.22749825       3.71188924 
Au      -1.28856157      -4.22749825      -3.71188924 
Au       1.28856157       4.22749825      -3.71188924 
Au      -1.28856157       4.22749825      -3.71188924 
Au       1.28856157      -4.22749825      -3.71188924 
Au       1.28856157       4.22749825       3.71188924 
Au      -1.28856157      -4.22749825       3.71188924 
