20
-1553.790334
Au       0.00000000      -0.00000000       3.96328331 
Au      -0.00000000      -0.00000000      -3.96328331 
Au      -0.00000000       0.00000000       1.34800835 
Au      -0.00000000       0.00000000      -1.34800835 
Au      -0.00000000       2.26662883       0.00000000 
Au      -0.00000000      -2.26662883      -0.00000000 
Au      -0.00000000      -5.94666409       0.00000000 
Au       0.00000000       5.94666409      -0.00000000 
Au       0.00000000      -2.27585747      -2.65711515 
Au      -0.00000000       2.27585747      -2.65711515 
Au       0.00000000      -2.27585747       2.65711515 
Au       0.00000000       2.27585747       2.65711515 
Au      -1.32643557      -4.12336095      -1.32417798 
Au       1.32643557       4.12336095      -1.32417798 
Au       1.32643557      -4.12336095       1.32417798 
Au      -1.32643557       4.12336095       1.32417798 
Au       1.32643557       4.12336095       1.32417798 
Au      -1.32643557      -4.12336095       1.32417798 
Au      -1.32643557       4.12336095      -1.32417798 
Au       1.32643557      -4.12336095      -1.32417798 
