20
-1551.986642
Au       0.00000000       0.00000000      -3.90279073 
Au      -0.00000000      -0.00000000       3.90279073 
Au      -0.00000000       0.00000000       1.29658173 
Au       0.00000000      -0.00000000      -1.29658173 
Au       0.00000000      -4.92559731       0.00000000 
Au       0.00000000       4.92559731      -0.00000000 
Au      -0.00000000       2.33083767      -0.00000000 
Au       0.00000000      -2.33083767      -0.00000000 
Au      -0.00000000       2.27126978      -2.62380734 
Au      -0.00000000      -2.27126978      -2.62380734 
Au      -0.00000000       2.27126978       2.62380734 
Au      -0.00000000      -2.27126978       2.62380734 
Au      -2.21465522      -1.37362246       1.31909405 
Au       2.21465522       1.37362246       1.31909405 
Au       2.21465522      -1.37362246      -1.31909405 
Au      -2.21465522       1.37362246      -1.31909405 
Au       2.21465522       1.37362246      -1.31909405 
Au      -2.21465522      -1.37362246      -1.31909405 
Au      -2.21465522       1.37362246       1.31909405 
Au       2.21465522      -1.37362246       1.31909405 
