20
-1548.270531
Au      -0.00000000       0.00000000       3.91579116 
Au      -0.00000000      -0.00000000      -3.91579116 
Au       0.00000000      -0.00000000      -1.29220746 
Au       0.00000000       0.00000000       1.29220746 
Au       0.00000000      -4.43959120       1.27996496 
Au       0.00000000       4.43959120       1.27996496 
Au      -0.00000000      -4.43959120      -1.27996496 
Au       0.00000000       4.43959120      -1.27996496 
Au      -0.00000000      -2.22688281       2.56879202 
Au       0.00000000       2.22688281       2.56879202 
Au      -0.00000000      -2.22688281      -2.56879202 
Au       0.00000000       2.22688281      -2.56879202 
Au       0.00000000      -5.69635770       3.52333056 
Au      -0.00000000       5.69635770       3.52333056 
Au      -0.00000000      -5.69635770      -3.52333056 
Au      -0.00000000       5.69635770      -3.52333056 
Au      -0.00000000       7.02440172       1.29010605 
Au       0.00000000      -7.02440172       1.29010605 
Au      -0.00000000       7.02440172      -1.29010605 
Au       0.00000000      -7.02440172      -1.29010605 
