20
-1551.413103
Au       0.00000000      -0.00000000       2.24110928 
Au       0.00000000       0.00000000      -2.24110928 
Au       0.00000000       1.34177155      -0.00000000 
Au       0.00000000      -1.34177155       0.00000000 
Au       0.00000000      -1.30297959       4.53448794 
Au       0.00000000       1.30297959       4.53448794 
Au      -0.00000000      -1.30297959      -4.53448794 
Au       0.00000000       1.30297959      -4.53448794 
Au       0.00000000      -5.00100448      -1.29808655 
Au       0.00000000       5.00100448      -1.29808655 
Au      -0.00000000      -5.00100448       1.29808655 
Au       0.00000000       5.00100448       1.29808655 
Au       0.00000000      -3.90280977      -4.48925032 
Au       0.00000000       3.90280977      -4.48925032 
Au      -0.00000000      -3.90280977       4.48925032 
Au       0.00000000       3.90280977       4.48925032 
Au       0.00000000      -2.59553561       2.25676000 
Au      -0.00000000       2.59553561       2.25676000 
Au       0.00000000      -2.59553561      -2.25676000 
Au      -0.00000000       2.59553561      -2.25676000 
