20
-1549.946955
Au       0.00000000      -3.54835018       0.00000001 
Au       0.00000000       3.54835019      -0.00000000 
Au      -0.00000000       6.15933250       0.00000001 
Au      -0.00000000      -6.15933251       0.00000000 
Au      -0.00000000      -4.86816839      -2.23800385 
Au       0.00000000       4.86816840      -2.23800385 
Au       0.00000000      -4.86816841       2.23800384 
Au      -0.00000000       4.86816839       2.23800384 
Au       0.00000000      -1.30250640      -1.30565540 
Au       0.00000000       1.30250638      -1.30565539 
Au       0.00000000      -1.30250639       1.30565539 
Au      -0.00000000       1.30250640       1.30565540 
Au      -0.00000000      -4.85846298       4.82271837 
Au      -0.00000000       4.85846299       4.82271837 
Au      -0.00000000      -4.85846299      -4.82271836 
Au       0.00000000       4.85846298      -4.82271836 
Au       0.00000000       2.61464419       3.53123496 
Au       0.00000000      -2.61464418       3.53123493 
Au       0.00000000       2.61464419      -3.53123494 
Au      -0.00000000      -2.61464419      -3.53123496 
