20
-1551.618398
Au      -0.00000000       0.00000000      -1.27666783 
Au       0.00000000       0.00000000       1.27666783 
Au      -0.00000000       0.00000000       3.86376786 
Au       0.00000000       0.00000000      -3.86376786 
Au       0.00000000       2.68073617       0.00000000 
Au      -0.00000000      -2.68073617      -0.00000000 
Au       4.49909529      -0.00000000      -0.00000000 
Au      -4.49909529      -0.00000000      -0.00000000 
Au       2.26615907       3.94368148      -0.00000000 
Au      -2.26615907      -3.94368148      -0.00000000 
Au      -2.26615907       3.94368148      -0.00000000 
Au       2.26615907      -3.94368148       0.00000000 
Au      -2.17217403      -1.28873436       0.00000000 
Au       2.17217403       1.28873436      -0.00000000 
Au       2.17217403      -1.28873436      -0.00000000 
Au      -2.17217403       1.28873436      -0.00000000 
Au      -4.46122013      -2.57959511       0.00000000 
Au       4.46122013       2.57959511      -0.00000000 
Au       4.46122013      -2.57959511      -0.00000000 
Au      -4.46122013       2.57959511       0.00000000 
