20
-1548.91025
Au       0.00000000      -0.00000000      -2.24532292 
Au       0.00000000      -0.00000000       2.24532292 
Au       0.00000000      -0.00000000       4.80637611 
Au      -0.00000000      -0.00000000      -4.80637611 
Au      -0.00000000      -1.31644226      -0.00000000 
Au       0.00000000       1.31644226       0.00000000 
Au       4.85089896      -0.00000000      -0.00000000 
Au      -4.85089896       0.00000000       0.00000000 
Au       1.28803781       3.58660739       0.00000000 
Au      -1.28803781      -3.58660739      -0.00000000 
Au      -1.28803781       3.58660738       0.00000000 
Au       1.28803781      -3.58660738       0.00000000 
Au      -2.60548662      -1.28595605      -0.00000000 
Au       2.60548662       1.28595605       0.00000000 
Au       2.60548662      -1.28595605       0.00000000 
Au      -2.60548662       1.28595605       0.00000000 
Au      -3.86925832       3.59339186       0.00000000 
Au       3.86925832      -3.59339186      -0.00000000 
Au       3.86925832       3.59339186      -0.00000000 
Au      -3.86925832      -3.59339186       0.00000000 
