20
-1545.80435
Au      -0.00000002       0.00000025       4.52310919 
Au      -0.00000002       0.00000025      -4.52310919 
Au      -0.00000005       0.00000080      -1.95785281 
Au      -0.00000005       0.00000080       1.95785281 
Au       0.00001039       1.81223351      -0.00000000 
Au      -0.00000644      -1.81224920      -0.00000000 
Au      -1.79751996       0.00006793      -0.00000000 
Au       1.79751665      -0.00003470      -0.00000000 
Au      -4.35932121       4.22614471       0.00000000 
Au       4.35931710      -4.22613750      -0.00000000 
Au       4.35932883       4.22613786      -0.00000000 
Au      -4.35932274      -4.22613139      -0.00000000 
Au       6.24046431       5.96575820      -0.00000000 
Au      -6.24046332      -5.96575790       0.00000000 
Au      -6.24054427       5.96568768      -0.00000000 
Au       6.24053872      -5.96568611       0.00000000 
Au       2.48796061       2.47708724       0.00000000 
Au      -2.48797560      -2.47710202       0.00000000 
Au      -2.48788005       2.47711340       0.00000000 
Au       2.48789712      -2.47713380      -0.00000000 
