20
-1546.797787
Au       0.00000017       0.00000031       1.30977122 
Au       0.00000017       0.00000031      -1.30977122 
Au      -0.00000013      -0.00000006       3.88949004 
Au      -0.00000013      -0.00000006      -3.88949004 
Au      -2.25889715      -0.00001642      -0.00000000 
Au       2.25889701      -0.00002845       0.00000000 
Au      -4.94855248      -0.00000753       0.00000000 
Au       4.94855272      -0.00001120      -0.00000000 
Au       6.16924533       2.27119228      -0.00000000 
Au      -6.16925197      -2.27118221       0.00000000 
Au      -6.16924623       2.27119006       0.00000000 
Au       6.16925281      -2.27118017      -0.00000000 
Au      -4.80277464      -4.46751524       0.00000000 
Au       4.80276917       4.46749399      -0.00000000 
Au       4.80277604      -4.46752130       0.00000000 
Au      -4.80277074       4.46749938       0.00000000 
Au       3.56238424       2.20865908       0.00000000 
Au      -3.56235961      -2.20861583      -0.00000000 
Au      -3.56237965       2.20864815      -0.00000000 
Au       3.56235508      -2.20860511       0.00000000 
