20
-1548.115283
Au       0.00000000       0.00000000      -2.28003706 
Au       0.00000000       0.00000000       2.28003706 
Au       0.00000000       1.27256917       0.00000000 
Au       0.00000000      -1.27256917       0.00000000 
Au       0.00000000      -3.84790647       0.00000000 
Au       0.00000000       3.84790647       0.00000000 
Au       3.29157384      -0.00000000       0.00000000 
Au      -3.29157384      -0.00000000      -0.00000000 
Au       4.77416560      -2.19040231      -0.00000000 
Au      -4.77416560       2.19040231      -0.00000000 
Au      -4.77416560      -2.19040231      -0.00000000 
Au       4.77416560       2.19040231      -0.00000000 
Au       3.73397972       4.60488573      -0.00000000 
Au      -3.73397972      -4.60488573      -0.00000000 
Au      -3.73397972       4.60488573      -0.00000000 
Au       3.73397972      -4.60488573       0.00000000 
Au       2.22215364      -2.51553679       0.00000000 
Au      -2.22215364       2.51553679      -0.00000000 
Au      -2.22215364      -2.51553679      -0.00000000 
Au       2.22215364       2.51553679      -0.00000000 
