20
-1553.551724
Au       0.42323395       0.63580870       1.20284683 
Au       0.26165227       0.43453589      -1.37907322 
Au       0.71888132       0.98675413       3.75503264 
Au      -0.00600227       0.08801867      -3.96945880 
Au       2.53669412      -0.26729926      -0.26675872 
Au      -1.90135290      -0.24869637       0.25284256 
Au      -1.13459576       2.33605760      -0.18886064 
Au       0.35026909      -1.83095635       0.26935415 
Au       4.77902839      -0.73060779       0.95900133 
Au      -3.75835157      -1.71935258      -0.86112835 
Au      -2.07578996       4.44194360       0.99898450 
Au      -0.04846764      -4.10429867      -0.95631948 
Au       2.32432789      -0.35545686      -2.88489027 
Au      -1.98002060      -0.63272635      -2.39681866 
Au      -1.44912275       1.90467183      -2.76343862 
Au       0.36152055      -2.01073456      -2.41749708 
Au      -0.88239090       2.62758365       2.46020758 
Au       0.43985694      -1.49805358       2.90627515 
Au       2.67228986      -0.18083480       2.40772510 
Au      -1.63166002       0.12364311       2.87197401 
