20
-1551.82777
Au      -0.00000000       0.00000000      -1.87241441 
Au       0.00000000       0.00000000       1.87241441 
Au       0.00000000      -1.88719416       0.00000000 
Au      -0.00000000       1.88719416       0.00000000 
Au       4.45258652       0.00000000      -0.00000000 
Au      -4.45258652       0.00000000      -0.00000000 
Au       1.84078243      -0.00000000      -0.00000000 
Au      -1.84078243      -0.00000000       0.00000000 
Au       3.17519969      -2.26213470      -0.00000000 
Au      -3.17519969       2.26213470      -0.00000000 
Au      -3.17519969      -2.26213470       0.00000000 
Au       3.17519969       2.26213470      -0.00000000 
Au      -1.29757221       4.16733255      -0.00000000 
Au       1.29757221      -4.16733255       0.00000000 
Au       1.29757221       4.16733255      -0.00000000 
Au      -1.29757221      -4.16733255       0.00000000 
Au       3.81716016       4.76280297       0.00000000 
Au      -3.81716016      -4.76280297      -0.00000000 
Au      -3.81716016       4.76280297      -0.00000000 
Au       3.81716016      -4.76280297      -0.00000000 
