20
-1550.54743
Au       0.00000000       0.00000000       2.25522911 
Au      -0.00000000      -0.00000000      -2.25522911 
Au       0.00000000       4.89859995       0.00000000 
Au       0.00000000      -4.89859995      -0.00000000 
Au      -1.30450691       0.00000000       0.00000000 
Au       1.30450691       0.00000000      -0.00000000 
Au      -3.90790659       0.00000000       0.00000000 
Au       3.90790659      -0.00000000       0.00000000 
Au      -1.28927348       2.58927732       0.00000000 
Au       1.28927348      -2.58927732      -0.00000000 
Au       1.28927348       2.58927732      -0.00000000 
Au      -1.28927348      -2.58927732      -0.00000000 
Au      -2.59711927       4.87203007      -0.00000000 
Au       2.59711927      -4.87203007       0.00000000 
Au       2.59711927       4.87203007       0.00000000 
Au      -2.59711927      -4.87203007      -0.00000000 
Au       3.86780683       2.58801804       0.00000000 
Au      -3.86780683      -2.58801804       0.00000000 
Au      -3.86780683       2.58801804      -0.00000000 
Au       3.86780683      -2.58801804      -0.00000000 
