20
-1550.778659
Au       0.00000000      -0.00000000      -2.27720521 
Au      -0.00000000       0.00000000       2.27720521 
Au      -0.00000000      -0.00000000      -4.86722119 
Au       0.00000000      -0.00000000       4.86722119 
Au       0.00000000      -2.23830093      -0.00000000 
Au      -0.00000000       2.23830093       0.00000000 
Au       1.27718713       0.00000000      -0.00000000 
Au      -1.27718713       0.00000000       0.00000000 
Au       3.54307368       1.29817495       0.00000000 
Au      -3.54307368      -1.29817495      -0.00000000 
Au      -3.54307368       1.29817495      -0.00000000 
Au       3.54307368      -1.29817495       0.00000000 
Au      -2.22947272      -3.53946879       0.00000000 
Au       2.22947272       3.53946879      -0.00000000 
Au       2.22947272      -3.53946879      -0.00000000 
Au      -2.22947272       3.53946879       0.00000000 
Au       2.71056457       0.00000000       2.18971524 
Au      -2.71056457       0.00000000       2.18971524 
Au      -2.71056457      -0.00000000      -2.18971524 
Au       2.71056457      -0.00000000      -2.18971524 
