20
-1550.761665
Au      -0.00000000      -0.00000000       4.88249255 
Au      -0.00000000      -0.00000000      -4.88249255 
Au       0.00000000      -0.00000000       2.28467766 
Au       0.00000000       0.00000000      -2.28467766 
Au       0.00000000       2.23844974      -0.00000000 
Au      -0.00000000      -2.23844974      -0.00000000 
Au      -1.27702620       0.00000000       0.00000000 
Au       1.27702620       0.00000000       0.00000000 
Au       3.54423151      -1.29951721      -0.00000000 
Au      -3.54423151       1.29951721       0.00000000 
Au      -3.54423151      -1.29951721       0.00000000 
Au       3.54423151       1.29951721      -0.00000000 
Au      -2.22904281      -3.54010640       0.00000000 
Au       2.22904281       3.54010640      -0.00000000 
Au       2.22904281      -3.54010640      -0.00000000 
Au      -2.22904281       3.54010640       0.00000000 
Au       2.72557408      -0.00000000       2.17940838 
Au      -2.72557408       0.00000000       2.17940838 
Au      -2.72557408      -0.00000000      -2.17940838 
Au       2.72557408       0.00000000      -2.17940838 
