20
-1551.115427
Au      -0.00002220       0.00002436       3.90029329 
Au      -0.00002533       0.00002812      -3.90030299 
Au       0.00002502      -0.00000021      -1.29195162 
Au       0.00002337      -0.00000375       1.29196392 
Au      -2.26751647      -0.16208510       0.00000128 
Au       2.26750906       0.16208625      -0.00000427 
Au       0.81276883      -2.12303023      -0.00000124 
Au      -0.81277968       2.12305174      -0.00000238 
Au      -4.69173703      -1.01621982      -0.00000025 
Au       4.69174403       1.01620336       0.00000018 
Au       1.05903441      -4.68152230       0.00000336 
Au      -1.05904916       4.68152749      -0.00000365 
Au      -2.29080540      -0.09911420       2.62418935 
Au       2.29082938       0.09911320       2.62417784 
Au       0.88052136      -2.11708350       2.62405783 
Au      -0.88053348       2.11705338       2.62408114 
Au       0.88052153      -2.11708710      -2.62405892 
Au      -0.88053417       2.11705579      -2.62407761 
Au      -2.29080732      -0.09911329      -2.62419106 
Au       2.29083326       0.09911578      -2.62417420 
