20
-1550.845982
Au       0.00000000       0.00000000      -1.29663213 
Au      -0.00000000      -0.00000000       1.29663213 
Au      -0.00000000      -0.00000000       3.90236642 
Au       0.00000000      -0.00000000      -3.90236642 
Au       0.00000000       2.44192744       0.00000000 
Au      -0.00000000      -2.44192744      -0.00000000 
Au       2.29658257       0.00000000       0.00000000 
Au      -2.29658257      -0.00000000      -0.00000000 
Au      -2.61391152       2.58114666      -0.00000000 
Au       2.61391152      -2.58114666      -0.00000000 
Au       2.61391152       2.58114666      -0.00000000 
Au      -2.61391152      -2.58114666       0.00000000 
Au       1.29210851      -4.80234143       0.00000000 
Au      -1.29210851       4.80234143       0.00000000 
Au      -1.29210851      -4.80234143       0.00000000 
Au       1.29210851       4.80234143      -0.00000000 
Au      -2.26713723      -0.00000000      -2.60635223 
Au       2.26713723       0.00000000      -2.60635223 
Au       2.26713723      -0.00000000       2.60635223 
Au      -2.26713723      -0.00000000       2.60635223 
