20
-1551.656922
Au      -0.00000000       0.00000000       3.85165644 
Au       0.00000000       0.00000000      -3.85165644 
Au       0.00000000      -0.00000000       1.26501794 
Au      -0.00000000      -0.00000000      -1.26501794 
Au      -0.00000000      -2.36342211       0.00000000 
Au      -0.00000000       2.36342211      -0.00000000 
Au       4.65033572      -0.00000000       0.00000000 
Au      -4.65033572      -0.00000000       0.00000000 
Au      -2.36811878       1.30399990      -0.00000000 
Au       2.36811878      -1.30399990       0.00000000 
Au       2.36811878       1.30399990       0.00000000 
Au      -2.36811878      -1.30399990      -0.00000000 
Au      -2.30417321       0.00000000      -2.42714074 
Au       2.30417321       0.00000000      -2.42714074 
Au       2.30417321       0.00000000       2.42714074 
Au      -2.30417321       0.00000000       2.42714074 
Au      -4.87949028      -0.00000000      -2.55505127 
Au       4.87949028      -0.00000000      -2.55505127 
Au       4.87949028      -0.00000000       2.55505127 
Au      -4.87949028      -0.00000000       2.55505127 
