20
-1550.096917
Au       0.00000000      -0.00000000      -3.88535903 
Au       0.00000000      -0.00000000       3.88535903 
Au       0.00000000       0.00000000       1.28018440 
Au       0.00000000      -0.00000000      -1.28018440 
Au      -0.00000000       4.19689926       0.00000000 
Au      -0.00000000      -4.19689926       0.00000000 
Au      -2.97569227      -0.00000000      -0.00000000 
Au       2.97569227       0.00000000       0.00000000 
Au      -1.30810937       1.96494692       0.00000000 
Au       1.30810937      -1.96494692       0.00000000 
Au       1.30810937       1.96494692      -0.00000000 
Au      -1.30810937      -1.96494692       0.00000000 
Au       2.25469251       0.00000000      -2.53205992 
Au      -2.25469251      -0.00000000      -2.53205992 
Au      -2.25469251      -0.00000000       2.53205992 
Au       2.25469251      -0.00000000       2.53205992 
Au       4.55254537       0.00000000      -3.69953900 
Au      -4.55254537       0.00000000      -3.69953900 
Au      -4.55254537      -0.00000000       3.69953900 
Au       4.55254537      -0.00000000       3.69953900 
