20
-1551.790458
Au      -0.00000000       0.00000000       1.30370965 
Au       0.00000000      -0.00000000      -1.30370965 
Au       0.00000000      -0.00000000      -3.95576667 
Au      -0.00000000       0.00000000       3.95576667 
Au      -0.00000000      -2.24930078       0.00000000 
Au       0.00000000       2.24930078      -0.00000000 
Au       2.22934009      -0.00000000       0.00000000 
Au      -2.22934009       0.00000000      -0.00000000 
Au       2.23460419       0.00000000      -5.28956990 
Au      -2.23460419      -0.00000000      -5.28956990 
Au      -2.23460419       0.00000000       5.28956990 
Au       2.23460419       0.00000000       5.28956990 
Au       4.49293610      -0.00000000      -1.29713350 
Au      -4.49293610      -0.00000000      -1.29713350 
Au      -4.49293610       0.00000000       1.29713350 
Au       4.49293610      -0.00000000       1.29713350 
Au       2.28324496      -0.00000000      -2.67212696 
Au      -2.28324496      -0.00000000      -2.67212696 
Au      -2.28324496       0.00000000       2.67212696 
Au       2.28324496       0.00000000       2.67212696 
