20
-1552.287844
Au       0.00000000       0.00000000      -5.26212718 
Au       0.00000000       0.00000000       5.26212718 
Au       0.00000000       0.00000000      -2.61774288 
Au       0.00000000       0.00000000       2.61774288 
Au       0.00000000       1.27688676       0.00000000 
Au       0.00000000      -1.27688676      -0.00000000 
Au       4.50625831       0.00000000      -0.00000000 
Au      -4.50625831      -0.00000000       0.00000000 
Au       2.25371966       0.00000000      -3.96062664 
Au      -2.25371966       0.00000000      -3.96062664 
Au      -2.25371966       0.00000000       3.96062664 
Au       2.25371966       0.00000000       3.96062664 
Au      -2.19858176      -0.00000000       1.29316246 
Au       2.19858176       0.00000000       1.29316246 
Au       2.19858176       0.00000000      -1.29316246 
Au      -2.19858176      -0.00000000      -1.29316246 
Au       4.47388687       0.00000000      -2.59323355 
Au      -4.47388687      -0.00000000      -2.59323355 
Au      -4.47388687      -0.00000000       2.59323355 
Au       4.47388687      -0.00000000       2.59323355 
