20
-1548.343345
Au      -0.00000000      -0.00000000      -2.25458423 
Au      -0.00000000      -0.00000000       2.25458423 
Au       0.00000000       0.00000000      -4.81601131 
Au       0.00000000       0.00000000       4.81601131 
Au       3.91445771      -0.00000000      -0.00000000 
Au      -3.91445771      -0.00000000      -0.00000000 
Au       1.28819560       0.00000000      -0.00000000 
Au      -1.28819560       0.00000000      -0.00000000 
Au       1.29311182      -2.76430286       0.00000000 
Au      -1.29311182       2.76430286       0.00000000 
Au      -1.29311182      -2.76430286       0.00000000 
Au       1.29311182       2.76430286       0.00000000 
Au      -3.87048123      -2.56961299       0.00000000 
Au       3.87048123       2.56961299      -0.00000000 
Au       3.87048123      -2.56961299       0.00000000 
Au      -3.87048123       2.56961299       0.00000000 
Au      -2.58359251       0.00000000       2.27200585 
Au       2.58359251      -0.00000000       2.27200585 
Au       2.58359251      -0.00000000      -2.27200585 
Au      -2.58359251       0.00000000      -2.27200585 
