20
-1548.722512
Au       0.00000000      -0.00000000      -3.87049156 
Au       0.00000000      -0.00000000       3.87049156 
Au      -0.00000000       0.00000000      -1.27314369 
Au      -0.00000000       0.00000000       1.27314369 
Au       2.51880246       0.00000000      -0.00000000 
Au      -2.51880246       0.00000000       0.00000000 
Au       5.08063902       0.00000000       0.00000000 
Au      -5.08063902      -0.00000000      -0.00000000 
Au       1.27761620       2.21409027       0.00000000 
Au      -1.27761620      -2.21409027      -0.00000000 
Au      -1.27761620       2.21409027       0.00000000 
Au       1.27761620      -2.21409027       0.00000000 
Au       1.29407356      -4.77904741       0.00000000 
Au      -1.29407356       4.77904741       0.00000000 
Au      -1.29407356      -4.77904741      -0.00000000 
Au       1.29407356       4.77904741       0.00000000 
Au       2.28266958      -0.00000000       2.59812470 
Au      -2.28266958       0.00000000       2.59812470 
Au      -2.28266958      -0.00000000      -2.59812470 
Au       2.28266958      -0.00000000      -2.59812470 
