20
-1548.124177
Au      -0.00000000       0.00000000       2.22820479 
Au      -0.00000000      -0.00000000      -2.22820479 
Au      -0.00000000       0.00000000      -4.78890732 
Au      -0.00000000       0.00000000       4.78890732 
Au      -3.94099953       0.00000000       0.00000000 
Au       3.94099953      -0.00000000      -0.00000000 
Au       1.33003636      -0.00000000      -0.00000000 
Au      -1.33003636       0.00000000       0.00000000 
Au       1.31789207      -2.57392004      -0.00000000 
Au      -1.31789207       2.57392004       0.00000000 
Au      -1.31789207      -2.57392004       0.00000000 
Au       1.31789207       2.57392004      -0.00000000 
Au       2.61034877      -0.00000000      -2.28904384 
Au      -2.61034877       0.00000000      -2.28904384 
Au      -2.61034877       0.00000000       2.28904384 
Au       2.61034877      -0.00000000       2.28904384 
Au       5.21123533      -0.00000000       2.25039657 
Au      -5.21123533      -0.00000000       2.25039657 
Au      -5.21123533       0.00000000      -2.25039657 
Au       5.21123533      -0.00000000      -2.25039657 
