20
-1552.073648
Au       0.02498740      -0.29597475      -2.54646302 
Au      -0.00005981       0.21054690       2.04321444 
Au       0.07156268       0.12109864       4.64030235 
Au       0.15690137      -0.52466250      -5.12898153 
Au      -3.83842249       0.47836348      -0.38301549 
Au       3.83103920      -0.52586381      -0.30905155 
Au       0.69809998      -4.39486639      -0.04956357 
Au      -0.87275617       4.54576478       0.77714883 
Au       1.25587853      -0.08254743      -0.23647349 
Au      -1.26458626       0.33746909      -0.27236978 
Au       0.35381256       2.30762419       0.36074179 
Au      -0.39799347      -2.09678315      -0.52125713 
Au       2.93212904       1.87281664       0.25818166 
Au      -2.80808025      -1.81567434       0.44843760 
Au      -2.68629418       0.26827613       2.01626951 
Au       2.63926626      -0.18220005       2.00308491 
Au      -2.44745692       2.48615835       0.63003191 
Au       2.19846989      -2.38232153       0.59474426 
Au       2.65559602       0.77516653      -2.25897686 
Au      -2.50209338      -1.10239078      -2.06600483 
