20
-1549.654759
Au      -0.00000000      -0.00000000       2.29391953 
Au       0.00000000       0.00000000      -2.29391953 
Au      -0.00000000       1.32985585       0.00000000 
Au       0.00000000      -1.32985585      -0.00000000 
Au      -0.00000000      -3.99041661       0.00000000 
Au      -0.00000000       3.99041661      -0.00000000 
Au       2.29914345      -0.00000000      -0.00000000 
Au      -2.29914345       0.00000000       0.00000000 
Au       2.27898460       2.63372960       0.00000000 
Au      -2.27898460      -2.63372960      -0.00000000 
Au      -2.27898460       2.63372960      -0.00000000 
Au       2.27898460      -2.63372960       0.00000000 
Au       2.27765361       5.23175323      -0.00000000 
Au      -2.27765361      -5.23175323       0.00000000 
Au      -2.27765361       5.23175323       0.00000000 
Au       2.27765361      -5.23175323      -0.00000000 
Au       2.57806396      -0.00000000       2.57409358 
Au      -2.57806396       0.00000000       2.57409358 
Au      -2.57806396       0.00000000      -2.57409358 
Au       2.57806396       0.00000000      -2.57409358 
