20
-1551.656057
Au      -0.00001462      -0.00000000      -2.41251557 
Au      -0.00001459      -0.00000000       2.41251557 
Au       0.00000391       1.26427276      -0.00000000 
Au       0.00000391      -1.26427276      -0.00000000 
Au       0.00000186       3.84613030       0.00000000 
Au       0.00000186      -3.84613030       0.00000000 
Au       4.61151442      -0.00000001      -0.00000000 
Au      -4.61152595      -0.00000000      -0.00000000 
Au       4.91555473       2.55939675       0.00000000 
Au      -4.91554922      -2.55939832      -0.00000000 
Au      -4.91554922       2.55939832      -0.00000000 
Au       4.91555473      -2.55939674       0.00000000 
Au      -2.32874656      -2.40213264       0.00000000 
Au       2.32875069       2.40213382      -0.00000000 
Au       2.32875069      -2.40213383      -0.00000000 
Au      -2.32874656       2.40213264       0.00000000 
Au      -2.32873950       0.00000000      -1.30580384 
Au       2.32874448      -0.00000000      -1.30579277 
Au       2.32874446      -0.00000000       1.30579278 
Au      -2.32873952       0.00000000       1.30580384 
