20
-1549.701493
Au      -0.00000029       0.00000000       2.06633585 
Au      -0.00000028      -0.00000000      -2.06633589 
Au      -0.00000003       4.27611272       0.00000000 
Au      -0.00000003      -4.27611272       0.00000000 
Au      -0.00000494      -1.65992957       0.00000047 
Au      -0.00000494       1.65992957       0.00000048 
Au       4.85588852       0.00000000      -0.00000001 
Au      -4.85588780      -0.00000000       0.00000002 
Au      -2.54954944      -3.92669359       0.00000000 
Au       2.54954943       3.92669365       0.00000000 
Au       2.54954943      -3.92669365       0.00000000 
Au      -2.54954944       3.92669359       0.00000000 
Au       2.62491269      -1.33626767       0.00000005 
Au      -2.62491224       1.33626751       0.00000004 
Au      -2.62491224      -1.33626751       0.00000004 
Au       2.62491269       1.33626767       0.00000005 
Au      -2.60143361      -0.00000000      -2.23702359 
Au       2.60143809      -0.00000000      -2.23702795 
Au       2.60143750       0.00000000       2.23702741 
Au      -2.60143304       0.00000000       2.23702303 
