20
-1551.087303
Au      -0.00000000      -0.00000000       4.53191423 
Au      -0.00000000       0.00000000      -4.53191423 
Au       0.00000000      -3.88260286       0.00000000 
Au      -0.00000000       3.88260286       0.00000000 
Au       0.00000000       1.27601253       0.00000000 
Au      -0.00000000      -1.27601253      -0.00000000 
Au      -2.50037791      -0.00000000      -0.00000000 
Au       2.50037791       0.00000000      -0.00000000 
Au       2.27311044       2.59498761      -0.00000000 
Au      -2.27311044      -2.59498761      -0.00000000 
Au      -2.27311044       2.59498761       0.00000000 
Au       2.27311044      -2.59498761       0.00000000 
Au      -1.29209213       0.00000000       2.27518342 
Au       1.29209213      -0.00000000       2.27518342 
Au       1.29209213      -0.00000000      -2.27518342 
Au      -1.29209213       0.00000000      -2.27518342 
Au       3.89530861      -0.00000000       2.21236702 
Au      -3.89530861       0.00000000       2.21236702 
Au      -3.89530861       0.00000000      -2.21236702 
Au       3.89530861      -0.00000000      -2.21236702 
