20
-1550.241691
Au       0.00000000       0.00000000       2.38640145 
Au       0.00000000      -0.00000000      -2.38640145 
Au      -0.00000000       1.30275011      -0.00000000 
Au       0.00000000      -1.30275011      -0.00000000 
Au      -0.00000000      -3.88046199      -0.00000000 
Au      -0.00000000       3.88046199       0.00000000 
Au      -2.38537430      -0.00000000      -0.00000000 
Au       2.38537430      -0.00000000       0.00000000 
Au      -2.62658339       0.00000000      -2.62769282 
Au       2.62658339      -0.00000000      -2.62769282 
Au       2.62658339       0.00000000       2.62769282 
Au      -2.62658339      -0.00000000       2.62769282 
Au       1.27809604      -0.00000000      -4.80506371 
Au      -1.27809604      -0.00000000      -4.80506371 
Au      -1.27809604       0.00000000       4.80506371 
Au       1.27809604       0.00000000       4.80506371 
Au       4.80314484      -0.00000000       1.27804523 
Au      -4.80314484      -0.00000000       1.27804523 
Au      -4.80314484      -0.00000000      -1.27804523 
Au       4.80314484      -0.00000000      -1.27804523 
