20
-1551.618391
Au      -0.00000000       0.00000000       4.49827928 
Au       0.00000000      -0.00000000      -4.49827928 
Au       0.00000000      -3.86373183      -0.00000000 
Au       0.00000000       3.86373183       0.00000000 
Au      -0.00000000       1.27666832       0.00000000 
Au       0.00000000      -1.27666832       0.00000000 
Au       2.68156968      -0.00000000       0.00000000 
Au      -2.68156968       0.00000000       0.00000000 
Au      -2.57962395      -0.00000000      -4.46061579 
Au       2.57962395      -0.00000000      -4.46061579 
Au       2.57962395       0.00000000       4.46061579 
Au      -2.57962395      -0.00000000       4.46061579 
Au      -1.28876209      -0.00000000      -2.17163372 
Au       1.28876209      -0.00000000      -2.17163372 
Au       1.28876209       0.00000000       2.17163372 
Au      -1.28876209      -0.00000000       2.17163372 
Au       3.94415163       0.00000000       2.26612935 
Au      -3.94415163      -0.00000000       2.26612935 
Au      -3.94415163      -0.00000000      -2.26612935 
Au       3.94415163      -0.00000000      -2.26612935 
