20
-1551.749484
Au      -0.00000000       0.00000000       2.27549139 
Au       0.00000000       0.00000000      -2.27549139 
Au      -0.00000000      -2.28829159       0.00000000 
Au      -0.00000000       2.28829159      -0.00000000 
Au       4.02225821      -0.00000000      -0.00000000 
Au      -4.02225821      -0.00000000      -0.00000000 
Au       1.30316198      -0.00000000      -0.00000000 
Au      -1.30316198      -0.00000000       0.00000000 
Au      -5.22422792       2.31462139      -0.00000000 
Au       5.22422792      -2.31462139      -0.00000000 
Au       5.22422792       2.31462139       0.00000000 
Au      -5.22422792      -2.31462139      -0.00000000 
Au      -2.63136578       2.24568460       0.00000000 
Au       2.63136578      -2.24568460      -0.00000000 
Au       2.63136578       2.24568460      -0.00000000 
Au      -2.63136578      -2.24568460       0.00000000 
Au      -2.61900169       0.00000000      -2.25429604 
Au       2.61900169      -0.00000000      -2.25429604 
Au       2.61900169       0.00000000       2.25429604 
Au      -2.61900169       0.00000000       2.25429604 
