20
-1553.103227
Au       0.00000005      -0.00000000      -2.25632978 
Au      -0.00000005      -0.00000000       2.25632982 
Au      -0.00000000      -2.26611405      -0.00000000 
Au      -0.00000000       2.26611405      -0.00000000 
Au      -1.33036583       0.00000000       0.00000004 
Au       1.33036583       0.00000000      -0.00000016 
Au      -3.96296102       0.00000000       0.00000000 
Au       3.96296102       0.00000000      -0.00000001 
Au       1.31007008       4.53100056       0.00000000 
Au      -1.31007008      -4.53100056      -0.00000000 
Au      -1.31007008       4.53100056      -0.00000000 
Au       1.31007008      -4.53100056       0.00000000 
Au      -2.67435440      -2.28000678      -0.00000000 
Au       2.67435440       2.28000678       0.00000000 
Au       2.67435440      -2.28000678       0.00000000 
Au      -2.67435440       2.28000678      -0.00000000 
Au      -2.61953906      -0.00000000      -2.24846960 
Au       2.61953899      -0.00000000      -2.24846953 
Au       2.61953908      -0.00000000       2.24846964 
Au      -2.61953901      -0.00000000       2.24846958 
