20
-1551.371307
Au      -0.00000000       0.00000000      -2.24896197 
Au       0.00000000      -0.00000000       2.24896197 
Au       0.00000000      -2.24489699      -0.00000000 
Au      -0.00000000       2.24489699      -0.00000000 
Au       1.32199823       0.00000000      -0.00000000 
Au      -1.32199823       0.00000000      -0.00000000 
Au      -3.94043735       0.00000000       0.00000000 
Au       3.94043735      -0.00000000      -0.00000000 
Au      -2.65530429      -0.00000000       2.26612600 
Au       2.65530429      -0.00000000       2.26612600 
Au       2.65530429       0.00000000      -2.26612600 
Au      -2.65530429       0.00000000      -2.26612599 
Au      -1.29111153       0.00000000       7.06472625 
Au       1.29111153      -0.00000000       7.06472625 
Au       1.29111153      -0.00000000      -7.06472625 
Au      -1.29111153      -0.00000000      -7.06472625 
Au       1.31675442       0.00000000      -4.49049877 
Au      -1.31675442       0.00000000      -4.49049877 
Au      -1.31675442      -0.00000000       4.49049877 
Au       1.31675442      -0.00000000       4.49049877 
