20
-1546.84372
Au      -0.20065482       4.72096872      -0.00002480 
Au      -0.20063178      -4.72089122      -0.00002481 
Au       0.37564794      -2.22689131      -0.00011684 
Au       0.37514810       2.22685544      -0.00011681 
Au       6.15230187      -0.00000984      -0.00007286 
Au      -5.49789791       0.00015523      -0.00001808 
Au      -0.97363682      -0.00019990      -0.00028533 
Au       1.67480005       0.00012985       0.00019068 
Au      -3.22026392       1.30857643       0.00001170 
Au       4.66674219      -2.13166208      -0.00000557 
Au       4.66671449       2.13162216      -0.00000557 
Au      -3.22045568      -1.30862524       0.00001170 
Au       3.92235334      -0.00002895       1.34128834 
Au      -3.99848979       0.00002374       2.12920664 
Au      -3.99841885       0.00002374      -2.12920367 
Au       3.92221269      -0.00002894      -1.34122235 
Au      -3.87022438       0.00000133      -4.68428075 
Au       1.64731815      -0.00001027      -2.56968133 
Au       1.64764280      -0.00001021       2.57007169 
Au      -3.87020768       0.00000133       4.68427801 
