20
-1548.139366
Au      -0.00000000       2.25081183       0.00000000 
Au      -0.00000000      -2.25081183       0.00000000 
Au      -0.00000000      -4.81025591       0.00000000 
Au       0.00000000       4.81025591      -0.00000000 
Au      -1.29360105      -0.00000000      -0.00000000 
Au       1.29360105       0.00000000      -0.00000000 
Au      -3.89342755      -0.00000000       0.00000000 
Au       3.89342755       0.00000000      -0.00000000 
Au       3.86706285       0.00000000      -2.58199723 
Au      -3.86706285      -0.00000000      -2.58199723 
Au      -3.86706285      -0.00000000       2.58199723 
Au       3.86706285       0.00000000       2.58199723 
Au       2.57117101      -0.00000000      -4.82851760 
Au      -2.57117101      -0.00000000      -4.82851760 
Au      -2.57117101      -0.00000000       4.82851760 
Au       2.57117101      -0.00000000       4.82851760 
Au      -1.28750706      -0.00000000       2.58990266 
Au       1.28750706      -0.00000000       2.58990266 
Au       1.28750706      -0.00000000      -2.58990266 
Au      -1.28750706      -0.00000000      -2.58990266 
