20
-1549.654381
Au      -0.00000000      -3.86160497       0.00000000 
Au      -0.00000000       3.86160497      -0.00000000 
Au       0.00000000       1.27475443       0.00000000 
Au       0.00000000      -1.27475443      -0.00000000 
Au       5.17573863       0.00000000       0.00000000 
Au      -5.17573863       0.00000000      -0.00000000 
Au       2.56129186      -0.00000000       0.00000000 
Au      -2.56129186      -0.00000000       0.00000000 
Au       1.27962893       0.00000000       2.21667936 
Au      -1.27962893      -0.00000000       2.21667936 
Au      -1.27962893       0.00000000      -2.21667936 
Au       1.27962893      -0.00000000      -2.21667936 
Au      -3.89640036       0.00000000      -2.26176736 
Au       3.89640036       0.00000000      -2.26176736 
Au       3.89640036       0.00000000       2.26176736 
Au      -3.89640036       0.00000000       2.26176736 
Au      -1.28976813      -0.00000000       4.78642764 
Au       1.28976813      -0.00000000       4.78642764 
Au       1.28976813      -0.00000000      -4.78642764 
Au      -1.28976813      -0.00000000      -4.78642764 
