20
-1548.192767
Au      -0.00000000      -0.00000003      -2.23755250 
Au       0.00000000      -0.00000003       2.23755250 
Au      -0.00000000       0.00000010      -4.79441209 
Au      -0.00000000       0.00000010       4.79441209 
Au       0.00000000       1.28927368       0.00000000 
Au      -0.00000000      -1.28927369      -0.00000000 
Au       2.25740007      -0.00000000       0.00000000 
Au      -2.25740007      -0.00000000      -0.00000000 
Au       1.31514884      -3.51608051       0.00000000 
Au      -1.31514883       3.51608050      -0.00000000 
Au      -1.31514884      -3.51608051       0.00000000 
Au       1.31514883       3.51608050      -0.00000000 
Au       2.89441548       5.54256494       0.00000000 
Au      -2.89441548      -5.54256494      -0.00000000 
Au      -2.89441548       5.54256494       0.00000000 
Au       2.89441548      -5.54256494      -0.00000000 
Au      -0.00000000       2.60431143       2.22126427 
Au      -0.00000000      -2.60431148       2.22126424 
Au      -0.00000000       2.60431143      -2.22126427 
Au      -0.00000000      -2.60431148      -2.22126424 
