20
-1547.898428
Au      -0.00000000      -0.00000000       4.44836839 
Au      -0.00000000      -0.00000000      -4.44836839 
Au      -0.00000000       0.00000000      -1.88290587 
Au       0.00000000       0.00000000       1.88290587 
Au      -1.84676464       0.00000000      -0.00000000 
Au       1.84676464       0.00000000      -0.00000000 
Au       0.00000000      -1.84676464      -0.00000000 
Au       0.00000000       1.84676464       0.00000000 
Au       4.40569059       0.00000000       0.00000000 
Au      -4.40569059      -0.00000000       0.00000000 
Au       0.00000000       4.40569059      -0.00000000 
Au      -0.00000000      -4.40569059      -0.00000000 
Au      -2.56081967      -4.38010732       0.00000000 
Au       2.56081967       4.38010732       0.00000000 
Au       4.38010732      -2.56081967      -0.00000000 
Au      -4.38010732       2.56081967      -0.00000000 
Au       2.56081967      -4.38010732       0.00000000 
Au      -2.56081967       4.38010732       0.00000000 
Au      -4.38010732      -2.56081967      -0.00000000 
Au       4.38010732       2.56081967      -0.00000000 
