20
-1550.740364
Au      -0.00000000      -0.00000001       1.28552590 
Au       0.00000000      -0.00000001      -1.28552595 
Au       0.00000000      -0.00000000       3.85731809 
Au       0.00000000      -0.00000000      -3.85731805 
Au       0.00000000      -3.26434260      -0.00000000 
Au      -0.00000000       3.26434261      -0.00000000 
Au       4.07958326       0.00000015       0.00000000 
Au      -4.07958326       0.00000002       0.00000000 
Au       1.83775346       1.40596505       0.00000000 
Au      -1.83775341      -1.40596505       0.00000000 
Au      -1.83775343       1.40596505       0.00000000 
Au       1.83775338      -1.40596505       0.00000000 
Au      -4.16038836      -2.58488220      -0.00000000 
Au       4.16038834       2.58488211      -0.00000000 
Au       4.16038838      -2.58488227      -0.00000000 
Au      -4.16038835       2.58488218      -0.00000000 
Au      -0.00000000      -2.31831109       2.45527739 
Au       0.00000000       2.31831110       2.45527739 
Au      -0.00000000      -2.31831108      -2.45527739 
Au       0.00000000       2.31831109      -2.45527739 
