20
-1549.8016
Au      -0.00000000      -0.00000000       3.97023123 
Au      -0.00000000       0.00000000      -3.97023123 
Au      -0.00000000       0.00000000       1.34738173 
Au      -0.00000000       0.00000000      -1.34738173 
Au      -0.00000000      -4.90349988       0.00000000 
Au      -0.00000000       4.90349988      -0.00000000 
Au      -2.29228160      -0.00000000       0.00000000 
Au       2.29228160       0.00000000      -0.00000000 
Au      -2.23164298      -2.60604215      -0.00000000 
Au       2.23164298       2.60604215      -0.00000000 
Au       2.23164298      -2.60604215      -0.00000000 
Au      -2.23164298       2.60604215      -0.00000000 
Au      -0.00000000       2.67948388      -1.35002130 
Au       0.00000000      -2.67948388      -1.35002130 
Au      -0.00000000       2.67948388       1.35002130 
Au       0.00000000      -2.67948388       1.35002130 
Au      -0.00000000      -2.57190469       3.94395625 
Au       0.00000000       2.57190469       3.94395625 
Au      -0.00000000      -2.57190469      -3.94395625 
Au       0.00000000       2.57190469      -3.94395625 
