20
-1551.827768
Au       0.00000000       0.00000000       1.84108250 
Au      -0.00000000      -0.00000000      -1.84108250 
Au      -0.00000000       0.00000000      -4.45267720 
Au       0.00000000      -0.00000000       4.45267720 
Au       0.00000000       1.88690615      -0.00000000 
Au      -0.00000000      -1.88690615       0.00000000 
Au       1.87214375      -0.00000000      -0.00000000 
Au      -1.87214375      -0.00000000       0.00000000 
Au       0.00000000      -4.76277040      -3.81712256 
Au       0.00000000       4.76277039      -3.81712256 
Au       0.00000000      -4.76277039       3.81712256 
Au      -0.00000000       4.76277040       3.81712256 
Au       0.00000000      -2.26219624       3.17528399 
Au       0.00000000       2.26219624       3.17528400 
Au      -0.00000000      -2.26219624      -3.17528400 
Au      -0.00000000       2.26219624      -3.17528399 
Au      -0.00000000      -4.16695724      -1.29761796 
Au      -0.00000000       4.16695724      -1.29761796 
Au       0.00000000      -4.16695724       1.29761796 
Au       0.00000000       4.16695724       1.29761796 
