20
-1551.790457
Au       0.00000000       0.00000000       1.30372771 
Au      -0.00000000       0.00000000      -1.30372771 
Au      -0.00000000       0.00000000      -3.95590440 
Au       0.00000000       0.00000000       3.95590440 
Au      -0.00000000       2.22931227      -0.00000000 
Au      -0.00000000      -2.22931227      -0.00000000 
Au      -2.24928389      -0.00000000       0.00000000 
Au       2.24928389       0.00000000      -0.00000000 
Au      -0.00000000       4.49278668      -1.29712183 
Au       0.00000000      -4.49278668      -1.29712183 
Au       0.00000000       4.49278668       1.29712183 
Au      -0.00000000      -4.49278668       1.29712183 
Au       0.00000000      -2.23451629      -5.28965552 
Au       0.00000000       2.23451629      -5.28965552 
Au      -0.00000000      -2.23451629       5.28965552 
Au      -0.00000000       2.23451629       5.28965552 
Au       0.00000000       2.28314936       2.67225919 
Au      -0.00000000      -2.28314936       2.67225919 
Au       0.00000000       2.28314936      -2.67225919 
Au       0.00000000      -2.28314936      -2.67225919 
