20
-1549.843263
Au      -0.00000000      -0.00000000       2.46028926 
Au       0.00000000      -0.00000000      -2.46028926 
Au       0.00000000       0.00000000       5.04373065 
Au       0.00000000       0.00000000      -5.04373065 
Au       1.27370586       0.00000000      -0.00000000 
Au      -1.27370586       0.00000000      -0.00000000 
Au      -3.85689957       0.00000000      -0.00000000 
Au       3.85689957       0.00000000      -0.00000000 
Au      -1.30931796      -4.14804958       0.00000000 
Au       1.30931796       4.14804958       0.00000000 
Au       1.30931796      -4.14804958       0.00000000 
Au      -1.30931796       4.14804958      -0.00000000 
Au       0.00000000      -2.30354870      -3.88459713 
Au       0.00000000       2.30354870      -3.88459713 
Au      -0.00000000      -2.30354870       3.88459713 
Au      -0.00000000       2.30354870       3.88459713 
Au      -0.00000000      -2.28186232      -1.28738522 
Au       0.00000000       2.28186232      -1.28738522 
Au      -0.00000000      -2.28186232       1.28738522 
Au       0.00000000       2.28186232       1.28738522 
