20
-1549.266626
Au      -3.67997509      -0.00000000       0.15689132 
Au       3.67997508      -0.00000000       0.15689132 
Au      -0.00000000      -3.67997509       0.15689134 
Au      -0.00000000       3.67997508       0.15689132 
Au       1.83709305      -0.00000001       2.01866417 
Au      -1.83709304      -0.00000001       2.01866417 
Au      -0.00000000       1.83709305       2.01866417 
Au      -0.00000000      -1.83709299       2.01866417 
Au      -3.49583571      -0.00000000      -2.40393033 
Au       3.49583571      -0.00000000      -2.40393033 
Au       0.00000000      -3.49583571      -2.40393036 
Au       0.00000000       3.49583571      -2.40393033 
Au      -4.34456256      -0.00000000       2.65039410 
Au       4.34456256      -0.00000000       2.65039410 
Au      -0.00000000      -4.34456259       2.65039411 
Au      -0.00000000       4.34456256       2.65039411 
Au       1.30539967       1.30539967      -2.86543304 
Au      -1.30539968      -1.30539966      -2.86543304 
Au      -1.30539967       1.30539967      -2.86543304 
Au       1.30539967      -1.30539967      -2.86543304 
