20
-1547.89843
Au      -0.00000000      -0.00000000       1.88262393 
Au      -0.00000000      -0.00000000      -1.88262393 
Au      -0.00000000       0.00000000      -4.44822265 
Au      -0.00000000       0.00000000       4.44822265 
Au       1.84696234      -0.00000000      -0.00000000 
Au      -1.84696234       0.00000000       0.00000000 
Au      -0.00000000       1.84696237       0.00000000 
Au       0.00000000      -1.84696237      -0.00000000 
Au      -4.40613159      -0.00000002      -0.00000000 
Au       4.40613159       0.00000002      -0.00000000 
Au      -0.00000002      -4.40613163      -0.00000000 
Au       0.00000002       4.40613163       0.00000000 
Au      -4.38032449       2.56097786       0.00000000 
Au       4.38032449      -2.56097786       0.00000000 
Au      -2.56097784      -4.38032410       0.00000000 
Au       2.56097784       4.38032410      -0.00000000 
Au       4.38032450       2.56097783      -0.00000000 
Au      -4.38032450      -2.56097783      -0.00000000 
Au       2.56097787      -4.38032409       0.00000000 
Au      -2.56097787       4.38032409      -0.00000000 
