20
-1552.03286
Au       0.00000000      -0.00000000      -5.20545744 
Au      -0.00000000       0.00000000       5.20545744 
Au      -0.00000000      -0.00000000       2.56631091 
Au      -0.00000000       0.00000000      -2.56631091 
Au      -3.84128014      -0.00000000       0.00000000 
Au       3.84128014       0.00000000      -0.00000000 
Au      -1.26278086       0.00000000      -0.00000000 
Au       1.26278086       0.00000000       0.00000000 
Au      -2.39264099      -2.31696210       0.00000000 
Au       2.39264099       2.31696210      -0.00000000 
Au       2.39264099      -2.31696210       0.00000000 
Au      -2.39264099       2.31696210      -0.00000000 
Au       0.00000000      -2.26697235      -1.28714770 
Au      -0.00000000       2.26697235      -1.28714770 
Au       0.00000000      -2.26697235       1.28714770 
Au      -0.00000000       2.26697235       1.28714770 
Au       0.00000000      -2.25279364      -3.90594171 
Au       0.00000000       2.25279364      -3.90594171 
Au       0.00000000      -2.25279364       3.90594171 
Au       0.00000000       2.25279364       3.90594171 
