20
-1548.667523
Au       0.00000000      -0.00000000       3.93828131 
Au      -0.00000000      -0.00000000      -3.93828131 
Au      -0.00000000       0.00000000      -1.33100948 
Au       0.00000000       0.00000000       1.33100948 
Au      -4.81999158      -0.00000000      -0.00000000 
Au       4.81999158       0.00000000       0.00000000 
Au       2.26269682      -0.00000000      -0.00000000 
Au      -2.26269682      -0.00000000       0.00000000 
Au      -2.24126056       2.59160072      -0.00000000 
Au       2.24126056      -2.59160072      -0.00000000 
Au       2.24126056       2.59160072      -0.00000000 
Au      -2.24126056      -2.59160072       0.00000000 
Au      -0.00000000      -2.88595795      -1.31366934 
Au       0.00000000       2.88595795      -1.31366934 
Au       0.00000000      -2.88595795       1.31366934 
Au       0.00000000       2.88595795       1.31366934 
Au       0.00000000       2.56880231      -3.88291422 
Au      -0.00000000      -2.56880231      -3.88291422 
Au      -0.00000000       2.56880231       3.88291422 
Au      -0.00000000      -2.56880231       3.88291422 
