20
-1548.442847
Au      -0.00000000      -0.00000000       1.30673535 
Au       0.00000000       0.00000000      -1.30673535 
Au       0.00000000       0.00000000      -3.89529541 
Au      -0.00000000      -0.00000000       3.89529541 
Au       4.80695510       0.00000000       0.00000000 
Au      -4.80695510       0.00000000       0.00000000 
Au      -2.24682461       0.00000000      -0.00000000 
Au       2.24682461      -0.00000000       0.00000000 
Au       0.00000000      -1.30808159       6.17276680 
Au       0.00000000       1.30808159       6.17276680 
Au      -0.00000000      -1.30808159      -6.17276680 
Au      -0.00000000       1.30808159      -6.17276680 
Au      -0.00000000       2.57123853      -3.89064230 
Au      -0.00000000      -2.57123853      -3.89064230 
Au       0.00000000       2.57123853       3.89064230 
Au       0.00000000      -2.57123853       3.89064230 
Au      -0.00000000      -2.55946449      -1.29896647 
Au      -0.00000000       2.55946449      -1.29896647 
Au      -0.00000000      -2.55946449       1.29896647 
Au       0.00000000       2.55946449       1.29896647 
