20
-1551.920745
Au      -0.00000000       0.00000000       2.28187515 
Au       0.00000000      -0.00000000      -2.28187515 
Au      -0.00000000      -5.83499042       0.00000000 
Au       0.00000000       5.83499042      -0.00000000 
Au       0.00000000      -1.31018259       0.00000000 
Au      -0.00000000       1.31018259       0.00000000 
Au       4.85710500       0.00000000       0.00000000 
Au      -4.85710500      -0.00000000       0.00000000 
Au       2.63480570       1.33364149       0.00000000 
Au      -2.63480570      -1.33364149      -0.00000000 
Au      -2.63480570       1.33364149       0.00000000 
Au       2.63480570      -1.33364149      -0.00000000 
Au       1.31499060      -3.59262314       0.00000000 
Au      -1.31499060       3.59262314      -0.00000000 
Au      -1.31499060      -3.59262314       0.00000000 
Au       1.31499060       3.59262314      -0.00000000 
Au      -0.00000000       2.63409068       2.21033210 
Au      -0.00000000      -2.63409068       2.21033210 
Au       0.00000000       2.63409068      -2.21033210 
Au      -0.00000000      -2.63409068      -2.21033210 
