20
-1553.103221
Au      -0.00000000       0.00000000       2.26575590 
Au       0.00000000       0.00000000      -2.26575590 
Au      -0.00000000       3.96348659       0.00000000 
Au       0.00000000      -3.96348659      -0.00000000 
Au       0.00000000       1.33063073      -0.00000000 
Au      -0.00000000      -1.33063073      -0.00000000 
Au       2.25593526       0.00000000       0.00000000 
Au      -2.25593526      -0.00000000       0.00000000 
Au       2.24844079      -2.61954426       0.00000000 
Au      -2.24844079       2.61954426      -0.00000000 
Au      -2.24844079      -2.61954426      -0.00000000 
Au       2.24844079       2.61954426       0.00000000 
Au       0.00000000       2.67408675       2.27966278 
Au       0.00000000      -2.67408675       2.27966278 
Au       0.00000000       2.67408675      -2.27966278 
Au      -0.00000000      -2.67408675      -2.27966278 
Au       0.00000000      -1.30994872       4.53065241 
Au      -0.00000000       1.30994872       4.53065241 
Au       0.00000000      -1.30994872      -4.53065241 
Au       0.00000000       1.30994872      -4.53065241 
