20
-1550.487256
Au      -0.00000000       0.00000000       6.14923792 
Au       0.00000000      -0.00000000      -6.14923792 
Au      -0.00000000      -6.19007130       0.00000000 
Au       0.00000000       6.19007130       0.00000000 
Au      -0.00000000      -3.60839659       0.00000000 
Au      -0.00000000       3.60839659      -0.00000000 
Au       1.86213283      -0.00000000       0.00000000 
Au      -1.86213283      -0.00000000      -0.00000000 
Au       0.00000000      -1.31342140       1.32483039 
Au      -0.00000000       1.31342140       1.32483039 
Au       0.00000000      -1.31342140      -1.32483039 
Au       0.00000000       1.31342140      -1.32483039 
Au       0.00000000       1.36171272      -3.96204275 
Au       0.00000000      -1.36171272      -3.96204275 
Au      -0.00000000       1.36171272       3.96204275 
Au      -0.00000000      -1.36171272       3.96204275 
Au       0.00000000      -3.57416859      -2.61988030 
Au       0.00000000       3.57416859      -2.61988030 
Au      -0.00000000      -3.57416859       2.61988030 
Au       0.00000000       3.57416859       2.61988030 
