20
-1551.790458
Au      -0.00000000      -0.00000000       2.22926206 
Au       0.00000000       0.00000000      -2.22926206 
Au      -0.00000000       3.95569727      -0.00000000 
Au      -0.00000000      -3.95569727       0.00000000 
Au      -0.00000000       1.30380317      -0.00000000 
Au       0.00000000      -1.30380317      -0.00000000 
Au       2.24933144       0.00000000       0.00000000 
Au      -2.24933144      -0.00000000       0.00000000 
Au       0.00000000      -1.29703226      -4.49292848 
Au       0.00000000       1.29703226      -4.49292848 
Au      -0.00000000      -1.29703226       4.49292848 
Au      -0.00000000       1.29703226       4.49292848 
Au      -0.00000000      -5.28951454       2.23453526 
Au       0.00000000       5.28951454       2.23453526 
Au       0.00000000      -5.28951454      -2.23453526 
Au       0.00000000       5.28951454      -2.23453526 
Au      -0.00000000       2.67197568       2.28313352 
Au      -0.00000000      -2.67197568       2.28313352 
Au       0.00000000       2.67197568      -2.28313352 
Au       0.00000000      -2.67197568      -2.28313352 
