20
-1549.572931
Au      -0.00000000       0.00000003       3.96515414 
Au      -0.00000000       0.00000003      -3.96515414 
Au       0.00000000      -3.22046145      -0.00000000 
Au       0.00000000       3.22046180      -0.00000000 
Au       4.17107933       0.00000018       0.00000000 
Au      -4.17107932       0.00000014       0.00000000 
Au      -6.75778361       0.00000001       0.00000000 
Au       6.75778361       0.00000000       0.00000000 
Au       4.39345364       2.55282538       0.00000000 
Au      -4.39345375      -2.55282556       0.00000000 
Au      -4.39345364       2.55282539       0.00000000 
Au       4.39345376      -2.55282559      -0.00000000 
Au       1.99042427       1.44967387       0.00000000 
Au      -1.99042161      -1.44967064       0.00000000 
Au      -1.99042432       1.44967392       0.00000000 
Au       1.99042147      -1.44967050       0.00000000 
Au       0.00000006       1.30090548      -1.73288313 
Au       0.00000003      -1.30090899      -1.73288493 
Au       0.00000006       1.30090547       1.73288313 
Au       0.00000003      -1.30090897       1.73288493 
