20
-1551.65404
Au       0.00000000       0.00000010       3.14634069 
Au      -0.00000000       0.00000010      -3.14634069 
Au      -0.00000004       4.09022765       0.00000000 
Au       0.00000004      -4.09022741       0.00000000 
Au       3.92321334      -0.00000047       0.00000000 
Au      -3.92321334      -0.00000035       0.00000000 
Au      -1.31861210       0.00000015      -0.00000000 
Au       1.31861210       0.00000018      -0.00000000 
Au       2.19490120       2.53637568       0.00000000 
Au      -2.19490141      -2.53637522       0.00000000 
Au      -2.19490126       2.53637562       0.00000000 
Au       2.19490147      -2.53637515       0.00000000 
Au      -4.79796272      -2.44091947       0.00000000 
Au       4.79796239       2.44091881       0.00000000 
Au       4.79796279      -2.44091957       0.00000000 
Au      -4.79796246       2.44091890       0.00000000 
Au       0.00000002      -1.86337114      -1.34630320 
Au      -0.00000002       1.86337137      -1.34630326 
Au       0.00000002      -1.86337113       1.34630320 
Au      -0.00000002       1.86337137       1.34630325 
