20
-1550.700124
Au      -0.00000000       0.00000000       4.63179091 
Au      -0.00000000      -0.00000000      -4.63179091 
Au      -0.00000000       2.28118467       0.00000000 
Au       0.00000000      -2.28118467       0.00000000 
Au       3.84948852       0.00000000      -0.00000000 
Au      -3.84948852      -0.00000000       0.00000000 
Au       1.26963461       0.00000000      -0.00000000 
Au      -1.26963461      -0.00000000      -0.00000000 
Au      -1.34036328       4.50370239      -0.00000000 
Au       1.34036328      -4.50370239      -0.00000000 
Au       1.34036328       4.50370239       0.00000000 
Au      -1.34036328      -4.50370239      -0.00000000 
Au      -0.00000000       1.29475148       2.37928985 
Au      -0.00000000      -1.29475148       2.37928985 
Au      -0.00000000       1.29475148      -2.37928985 
Au       0.00000000      -1.29475148      -2.37928985 
Au      -0.00000000      -3.89062696       2.15627982 
Au      -0.00000000       3.89062696       2.15627982 
Au       0.00000000      -3.89062696      -2.15627982 
Au       0.00000000       3.89062696      -2.15627982 
