20
-1551.848339
Au       0.00000000       0.00000000      -3.06136167 
Au       0.00000000       0.00000000       3.06136167 
Au      -0.00000000       4.16846810       0.00000000 
Au      -0.00000000      -4.16846810       0.00000000 
Au      -1.28472681       0.00000000      -0.00000000 
Au       1.28472681       0.00000000      -0.00000000 
Au      -3.85289286      -0.00000000       0.00000000 
Au       3.85289286      -0.00000000       0.00000000 
Au      -2.22669810      -2.46371859       0.00000000 
Au       2.22669810       2.46371859       0.00000000 
Au       2.22669810      -2.46371859       0.00000000 
Au      -2.22669810       2.46371859       0.00000000 
Au      -0.00000000      -1.95613097      -1.35345164 
Au       0.00000000       1.95613097      -1.35345164 
Au      -0.00000000      -1.95613097       1.35345164 
Au       0.00000000       1.95613097       1.35345164 
Au       0.00000000       2.44803343      -3.92220058 
Au       0.00000000      -2.44803343      -3.92220058 
Au      -0.00000000       2.44803343       3.92220058 
Au       0.00000000      -2.44803343       3.92220058 
