20
-1549.450437
Au       0.00000000      -0.00000000      -4.42923649 
Au       0.00000000       0.00000000       4.42923650 
Au      -0.00000000       2.58796182       0.00000000 
Au      -0.00000000      -2.58796182       0.00000000 
Au      -3.86525758      -0.00000000      -0.00000000 
Au       3.86525758       0.00000000      -0.00000000 
Au      -1.27794934       0.00000000       0.00000000 
Au       1.27794934       0.00000000       0.00000000 
Au       0.00000000      -1.28336885      -2.19097176 
Au       0.00000000       1.28336885      -2.19097176 
Au       0.00000000      -1.28336885       2.19097176 
Au      -0.00000000       1.28336885       2.19097176 
Au       0.00000000       3.86601681       2.25687426 
Au      -0.00000000      -3.86601681       2.25687426 
Au       0.00000000       3.86601681      -2.25687426 
Au       0.00000000      -3.86601681      -2.25687426 
Au      -0.00000000      -6.25454410      -1.29902622 
Au      -0.00000000       6.25454410      -1.29902622 
Au      -0.00000000      -6.25454410       1.29902622 
Au       0.00000000       6.25454410       1.29902622 
