20
-1548.749433
Au       0.00000000      -1.31562378       0.00000000 
Au      -0.00000000       1.31562378      -0.00000000 
Au      -0.00000000       3.92690653      -0.00000000 
Au       0.00000000      -3.92690653       0.00000000 
Au      -4.91679151       0.00000000      -0.00000000 
Au       4.91679151      -0.00000000      -0.00000000 
Au       2.29669929       0.00000000       0.00000000 
Au      -2.29669929       0.00000000       0.00000000 
Au      -2.26027079      -2.63719955       0.00000000 
Au       2.26027079       2.63719955      -0.00000000 
Au       2.26027079      -2.63719955      -0.00000000 
Au      -2.26027079       2.63719955       0.00000000 
Au      -4.84926939      -2.56229676       0.00000000 
Au       4.84926939       2.56229676       0.00000000 
Au       4.84926939      -2.56229676       0.00000000 
Au      -4.84926939       2.56229676       0.00000000 
Au      -0.00000000      -1.31630904       2.57497248 
Au      -0.00000000       1.31630904       2.57497248 
Au       0.00000000      -1.31630904      -2.57497248 
Au      -0.00000000       1.31630904      -2.57497248 
