20
-1546.980468
Au       0.00000000      -1.28304053       0.00000000 
Au       0.00000000       1.28304053      -0.00000000 
Au      -0.00000000       3.88064598      -0.00000000 
Au      -0.00000000      -3.88064598       0.00000000 
Au       2.21567879      -0.00000000       0.00000000 
Au      -2.21567879      -0.00000000      -0.00000000 
Au       4.79475010       0.00000000       0.00000000 
Au      -4.79475010       0.00000000      -0.00000000 
Au       3.50644702      -2.24459262       0.00000000 
Au      -3.50644702       2.24459262      -0.00000000 
Au      -3.50644702      -2.24459262      -0.00000000 
Au       3.50644702       2.24459262       0.00000000 
Au       0.00000000      -1.29285718       2.75821369 
Au       0.00000000       1.29285718       2.75821369 
Au      -0.00000000      -1.29285718      -2.75821369 
Au      -0.00000000       1.29285718      -2.75821369 
Au      -0.00000000       3.87300020       2.57019807 
Au      -0.00000000      -3.87300020       2.57019807 
Au       0.00000000       3.87300020      -2.57019807 
Au       0.00000000      -3.87300020      -2.57019807 
