20
-1550.892597
Au       0.00000208      -0.00000194      -1.28581721 
Au       0.00000208      -0.00000194       1.28581721 
Au      -0.00000101       0.00000099       3.88430788 
Au      -0.00000101       0.00000099      -3.88430788 
Au       2.41044459       0.04972722      -0.00000000 
Au      -2.41044766      -0.04972612       0.00000000 
Au       0.05193771       2.41102239      -0.00000000 
Au      -0.05194049      -2.41101950      -0.00000000 
Au      -2.63652568      -2.63430849      -0.00000000 
Au       2.63652927       2.63430558       0.00000000 
Au       2.53441466      -2.53699592       0.00000000 
Au      -2.53441435       2.53699676      -0.00000000 
Au      -2.26955996      -0.41481458       2.60920739 
Au       2.26955988       0.41481457       2.60920760 
Au      -0.41820365      -2.26887092       2.60901402 
Au       0.41820362       2.26887091       2.60901378 
Au       2.26955988       0.41481457      -2.60920760 
Au      -2.26955996      -0.41481458      -2.60920739 
Au      -0.41820365      -2.26887092      -2.60901402 
Au       0.41820362       2.26887091      -2.60901378 
