20
-1548.465149
Au      -0.00000000       3.93601297       0.00000000 
Au      -0.00000000      -3.93601297       0.00000000 
Au       0.00000000      -1.32339252       0.00000000 
Au       0.00000000       1.32339252       0.00000000 
Au       2.23344789      -0.00000000      -0.00000000 
Au      -2.23344789       0.00000000      -0.00000000 
Au       4.79205806      -0.00000000      -0.00000000 
Au      -4.79205806      -0.00000000      -0.00000000 
Au      -0.00000000       2.65396128       2.22680168 
Au      -0.00000000      -2.65396128       2.22680168 
Au       0.00000000       2.65396128      -2.22680168 
Au       0.00000000      -2.65396128      -2.22680168 
Au      -0.00000000      -3.88398276       4.49036768 
Au      -0.00000000       3.88398276       4.49036768 
Au       0.00000000      -3.88398276      -4.49036768 
Au       0.00000000       3.88398276      -4.49036768 
Au      -0.00000000      -1.28985698       4.43403800 
Au      -0.00000000       1.28985698       4.43403800 
Au       0.00000000      -1.28985698      -4.43403800 
Au       0.00000000       1.28985698      -4.43403800 
