20
-1548.13937
Au       0.00000000       3.89350700       0.00000000 
Au       0.00000000      -3.89350700      -0.00000000 
Au      -0.00000000      -1.29371922      -0.00000000 
Au       0.00000000       1.29371922       0.00000000 
Au      -2.25060811      -0.00000000      -0.00000000 
Au       2.25060811      -0.00000000      -0.00000000 
Au       4.81010001      -0.00000000      -0.00000000 
Au      -4.81010001      -0.00000000       0.00000000 
Au       0.00000000      -3.86679325      -2.58203844 
Au       0.00000000       3.86679325      -2.58203844 
Au      -0.00000000      -3.86679325       2.58203844 
Au       0.00000000       3.86679325       2.58203844 
Au       0.00000000      -2.57099061       4.82868386 
Au       0.00000000       2.57099061       4.82868386 
Au       0.00000000      -2.57099061      -4.82868386 
Au       0.00000000       2.57099061      -4.82868386 
Au       0.00000000      -1.28737463       2.58995244 
Au       0.00000000       1.28737463       2.58995244 
Au      -0.00000000      -1.28737463      -2.58995244 
Au      -0.00000000       1.28737463      -2.58995244 
