20
-1547.094598
Au       0.00000000      -3.89003400       0.00000000 
Au      -0.00000000       3.89003400      -0.00000000 
Au      -0.00000000      -1.29348126      -0.00000000 
Au       0.00000000       1.29348126      -0.00000000 
Au      -2.25809736       0.00000000      -0.00000000 
Au       2.25809736      -0.00000000       0.00000000 
Au      -4.81750558      -0.00000000       0.00000000 
Au       4.81750558       0.00000000       0.00000000 
Au      -0.00000000      -5.11781255       2.29335311 
Au       0.00000000       5.11781255       2.29335311 
Au      -0.00000000      -5.11781255      -2.29335311 
Au       0.00000000       5.11781255      -2.29335311 
Au       0.00000000      -2.54286799       2.24640109 
Au      -0.00000000       2.54286799       2.24640109 
Au       0.00000000      -2.54286799      -2.24640109 
Au      -0.00000000       2.54286799      -2.24640109 
Au      -0.00000000       1.28941063      -4.49600953 
Au       0.00000000      -1.28941063      -4.49600953 
Au      -0.00000000       1.28941063       4.49600953 
Au       0.00000000      -1.28941063       4.49600953 
