20
-1549.891523
Au      -0.00000000      -0.00000000       3.93613128 
Au      -0.00000000      -0.00000000      -3.93613128 
Au      -0.00000000      -0.00000000       1.28978193 
Au      -0.00000000      -0.00000000      -1.28978193 
Au       0.00000000      -2.38419012      -0.00000000 
Au       0.00000000       2.38419012      -0.00000000 
Au      -2.36452048      -0.00000000       0.00000000 
Au       2.36452048       0.00000000      -0.00000000 
Au       2.57860739       2.60964324       0.00000000 
Au      -2.57860739      -2.60964324       0.00000000 
Au      -2.57860739       2.60964324      -0.00000000 
Au       2.57860739      -2.60964324       0.00000000 
Au      -2.25946843      -0.00000000      -2.65202213 
Au       2.25946843       0.00000000      -2.65202213 
Au       2.25946843       0.00000000       2.65202213 
Au      -2.25946843      -0.00000000       2.65202213 
Au       0.00000000       2.25498660      -2.61324407 
Au       0.00000000      -2.25498660      -2.61324407 
Au       0.00000000       2.25498660       2.61324407 
Au       0.00000000      -2.25498660       2.61324407 
