20
-1549.480155
Au       0.00000008      -0.00000001      -3.20179536 
Au       0.00000004      -0.00000001       3.20179538 
Au       0.00000006      -0.00000000       5.77573899 
Au       0.00000002       0.00000000      -5.77573898 
Au       0.00000001      -4.03996915       0.00000001 
Au       0.00000002       4.03996911       0.00000001 
Au       1.29432273      -0.00000004      -0.00000023 
Au      -1.29432279      -0.00000003       0.00000019 
Au       2.20611435      -2.44564522      -0.00000009 
Au      -2.20611439       2.44564518      -0.00000010 
Au      -2.20611436      -2.44564525       0.00000009 
Au       2.20611441       2.44564512       0.00000011 
Au      -3.53320418       0.00000035      -1.30332685 
Au       3.53320438      -0.00000018      -1.30332683 
Au       3.53320411       0.00000040       1.30332685 
Au      -3.53320443      -0.00000019       1.30332681 
Au      -0.00000013      -1.84623025      -1.37050292 
Au      -0.00000005       1.84623022      -1.37050290 
Au       0.00000009      -1.84623024       1.37050292 
Au       0.00000003       1.84623020       1.37050290 
