20
-1547.739024
Au       0.00000000      -0.00000000       3.97260681 
Au       0.00000000      -0.00000000      -3.97260681 
Au       0.00000000      -0.00000000      -1.37518922 
Au       0.00000000      -0.00000000       1.37518922 
Au       0.00000001      -2.15373156      -0.00000000 
Au      -0.00000001       2.15373155      -0.00000000 
Au       2.19924450      -0.00000001      -0.00000000 
Au      -2.19924450       0.00000002       0.00000000 
Au       3.49574787       0.00000000       7.57428410 
Au      -3.49574787       0.00000000       7.57428410 
Au      -3.49574787       0.00000000      -7.57428410 
Au       3.49574787       0.00000000      -7.57428410 
Au      -1.30065737      -0.00000000       6.23256714 
Au       1.30065737      -0.00000000       6.23256714 
Au       1.30065737      -0.00000000      -6.23256714 
Au      -1.30065737      -0.00000000      -6.23256714 
Au       0.00000000      -2.24827055      -2.59901039 
Au      -0.00000000       2.24827055      -2.59901039 
Au       0.00000000      -2.24827055       2.59901039 
Au      -0.00000000       2.24827055       2.59901039 
