20
-1550.159756
Au      -0.00000003       0.00000000       6.68043839 
Au      -0.00000022      -0.00000000      -6.68043839 
Au      -0.00002911      -0.00000000      -4.12137704 
Au      -0.00000496       0.00000000       4.12137704 
Au       0.00000022      -1.35419242      -0.00000000 
Au       0.00000022       1.35419242      -0.00000000 
Au       3.15550210      -0.00000000      -0.00000055 
Au      -3.15550341      -0.00000000       0.00000055 
Au      -1.38069000      -0.00000000       1.90346090 
Au       1.38069048      -0.00000000       1.90345990 
Au       1.38069162       0.00000000      -1.90345717 
Au      -1.38068886       0.00000000      -1.90346363 
Au       2.54918367       0.00000000       4.30670644 
Au      -2.54917904       0.00000000       4.30670593 
Au      -2.54916758       0.00000000      -4.30670472 
Au       2.54919514      -0.00000000      -4.30670765 
Au      -0.00000004       2.15132276       2.52334821 
Au      -0.00000004      -2.15132276       2.52334821 
Au      -0.00000009       2.15132276      -2.52334821 
Au      -0.00000009      -2.15132276      -2.52334821 
