20
-1553.103225
Au       0.00000000      -0.00000000      -3.96328505 
Au      -0.00000000       0.00000000       3.96328505 
Au       0.00000000       0.00000000       1.33042457 
Au       0.00000000      -0.00000000      -1.33042457 
Au       0.00000000       2.26603317      -0.00000000 
Au       0.00000000      -2.26603317       0.00000000 
Au      -2.25636125       0.00000000      -0.00000000 
Au       2.25636125       0.00000000      -0.00000000 
Au      -2.24828903      -0.00000000       2.61952361 
Au       2.24828903       0.00000000       2.61952361 
Au       2.24828903       0.00000000      -2.61952361 
Au      -2.24828903      -0.00000000      -2.61952361 
Au      -0.00000000      -4.53075618       1.31010940 
Au       0.00000000       4.53075618       1.31010940 
Au       0.00000000      -4.53075618      -1.31010940 
Au       0.00000000       4.53075618      -1.31010940 
Au      -0.00000000      -2.27966932      -2.67407284 
Au       0.00000000       2.27966932      -2.67407284 
Au      -0.00000000      -2.27966932       2.67407284 
Au       0.00000000       2.27966932       2.67407284 
