20
-1543.077008
Au      -0.00000000      -0.00000000       9.24213362 
Au       0.00000000      -0.00000000      -9.24213409 
Au      -0.00000000       0.00000000      -1.95171195 
Au      -0.00000000       0.00000000       1.95171235 
Au      -1.80771463      -0.00000000       0.00000033 
Au       1.80771463       0.00000000       0.00000033 
Au      -0.00000000      -1.80771463       0.00000033 
Au       0.00000000       1.80771463       0.00000033 
Au      -2.47933601      -2.47933601      -0.00000002 
Au       2.47933601       2.47933601      -0.00000002 
Au       2.47933601      -2.47933601      -0.00000002 
Au      -2.47933601       2.47933601      -0.00000002 
Au       1.84932568       0.00000008      -7.41274424 
Au      -1.84932568      -0.00000008      -7.41274424 
Au       0.00000008       1.84934587      -7.41276508 
Au      -0.00000008      -1.84934587      -7.41276508 
Au      -1.84932275      -0.00000008       7.41274304 
Au       1.84932275       0.00000008       7.41274304 
Au       0.00000008       1.84934471       7.41276569 
Au      -0.00000008      -1.84934471       7.41276569 
