20
-1547.979161
Au       0.00000000       0.00000000      -2.34522610 
Au      -0.00000000       0.00000000       2.34522610 
Au      -0.00000000      -0.00000000       4.93714179 
Au      -0.00000000      -0.00000000      -4.93714179 
Au      -3.89644725      -0.00000000      -0.00000000 
Au       3.89644725       0.00000000       0.00000000 
Au       1.29941885       0.00000000      -0.00000000 
Au      -1.29941885      -0.00000000       0.00000000 
Au      -1.35957430      -2.60687612       0.00000000 
Au       1.35957430       2.60687612      -0.00000000 
Au       1.35957430      -2.60687612      -0.00000000 
Au      -1.35957430       2.60687612      -0.00000000 
Au      -2.63408884       0.00000000      -2.27320089 
Au       2.63408884       0.00000000      -2.27320089 
Au       2.63408884      -0.00000000       2.27320089 
Au      -2.63408884      -0.00000000       2.27320089 
Au       0.00000000       2.57969145      -2.22725380 
Au      -0.00000000      -2.57969145      -2.22725380 
Au       0.00000000       2.57969145       2.22725380 
Au       0.00000000      -2.57969145       2.22725380 
