20
-1551.077227
Au      -0.00000000       0.00000000       5.15738487 
Au       0.00000000      -0.00000000      -5.15738487 
Au       0.00000000       0.00000000       2.51220084 
Au       0.00000000       0.00000000      -2.51220084 
Au      -1.27359721       0.00000000       0.00000000 
Au       1.27359721      -0.00000000       0.00000000 
Au       3.88119949      -0.00000000      -0.00000000 
Au      -3.88119949       0.00000000      -0.00000000 
Au       2.60624775      -0.00000000       2.26775793 
Au      -2.60624775      -0.00000000       2.26775793 
Au      -2.60624775       0.00000000      -2.26775793 
Au       2.60624775       0.00000000      -2.26775793 
Au       0.00000000       2.26719636      -1.28447142 
Au       0.00000000      -2.26719636      -1.28447142 
Au       0.00000000       2.26719636       1.28447142 
Au      -0.00000000      -2.26719636       1.28447142 
Au       0.00000000      -2.25832780      -3.88854660 
Au       0.00000000       2.25832780      -3.88854660 
Au      -0.00000000      -2.25832780       3.88854660 
Au      -0.00000000       2.25832780       3.88854660 
