20
-1545.136936
Au      -0.00000001       0.00000001       4.45942783 
Au       0.00000001      -0.00000001      -4.45942783 
Au       0.00000001      -0.00000001       1.89465548 
Au      -0.00000001       0.00000001      -1.89465548 
Au      -1.41356234      -1.41325494      -0.00000000 
Au       1.41356233       1.41325494      -0.00000000 
Au       1.32851525      -1.32859820       0.00000001 
Au      -1.32851525       1.32859820      -0.00000001 
Au      -3.28598395      -3.28650053       0.00000000 
Au       3.28598395       3.28650053       0.00000000 
Au       3.16541630      -3.16554676      -0.00000000 
Au      -3.16541629       3.16554676       0.00000000 
Au      -2.58593307      -0.08740823       1.90448331 
Au       2.58593308       0.08740824       1.90448329 
Au      -0.08757395      -2.58602574       1.90438974 
Au       0.08757395       2.58602572       1.90438974 
Au       2.58593307       0.08740823      -1.90448330 
Au      -2.58593308      -0.08740824      -1.90448330 
Au      -0.08757395      -2.58602573      -1.90438975 
Au       0.08757395       2.58602574      -1.90438974 
