20
-1550.845979
Au      -0.00000000      -0.00000000       2.29672838 
Au       0.00000000      -0.00000000      -2.29672838 
Au       0.00000000       3.90247110      -0.00000000 
Au      -0.00000000      -3.90247110       0.00000000 
Au       0.00000000       1.29658029      -0.00000000 
Au       0.00000000      -1.29658029      -0.00000000 
Au      -2.44205712       0.00000000       0.00000000 
Au       2.44205712       0.00000000      -0.00000000 
Au       4.80260170       0.00000000      -1.29213622 
Au      -4.80260170      -0.00000000      -1.29213622 
Au      -4.80260170       0.00000000       1.29213622 
Au       4.80260170       0.00000000       1.29213622 
Au      -2.58131231       0.00000000      -2.61390893 
Au       2.58131231       0.00000000      -2.61390893 
Au       2.58131231       0.00000000       2.61390893 
Au      -2.58131231       0.00000000       2.61390893 
Au       0.00000000       2.60657051      -2.26710430 
Au       0.00000000      -2.60657051      -2.26710430 
Au      -0.00000000       2.60657051       2.26710430 
Au      -0.00000000      -2.60657051       2.26710430 
