20
-1550.778661
Au      -0.00000000       0.00000000      -1.27708359 
Au      -0.00000000      -0.00000000       1.27708359 
Au       0.00000000       2.27730841       0.00000000 
Au      -0.00000000      -2.27730841      -0.00000000 
Au       0.00000000       4.86745028       0.00000000 
Au      -0.00000000      -4.86745028      -0.00000000 
Au       2.23832351       0.00000000       0.00000000 
Au      -2.23832351      -0.00000000      -0.00000000 
Au      -3.54016079       0.00000000      -2.22911512 
Au       3.54016079       0.00000000      -2.22911512 
Au       3.54016079       0.00000000       2.22911512 
Au      -3.54016079      -0.00000000       2.22911512 
Au      -1.29839601       0.00000000      -3.54256717 
Au       1.29839601      -0.00000000      -3.54256717 
Au       1.29839601      -0.00000000       3.54256717 
Au      -1.29839601      -0.00000000       3.54256717 
Au      -0.00000000      -2.18975766      -2.71043909 
Au       0.00000000       2.18975766      -2.71043909 
Au      -0.00000000      -2.18975766       2.71043909 
Au      -0.00000000       2.18975766       2.71043909 
