20
-1549.865585
Au      -0.00000000       0.00000000      -2.22062635 
Au       0.00000000      -0.00000000       2.22062635 
Au       0.00000000      -3.92790147       0.00000000 
Au       0.00000000       3.92790147       0.00000000 
Au       0.00000000      -1.32203219       0.00000000 
Au      -0.00000000       1.32203219       0.00000000 
Au      -2.22868474      -0.00000000      -0.00000000 
Au       2.22868474      -0.00000000      -0.00000000 
Au      -4.46106561      -0.00000000      -1.30773403 
Au       4.46106561       0.00000000      -1.30773403 
Au       4.46106561       0.00000000       1.30773403 
Au      -4.46106561      -0.00000000       1.30773403 
Au       0.00000000       1.29771894      -4.48384114 
Au      -0.00000000      -1.29771894      -4.48384114 
Au      -0.00000000       1.29771894       4.48384114 
Au      -0.00000000      -1.29771894       4.48384114 
Au       0.00000000      -2.67637596       2.27614161 
Au       0.00000000       2.67637596       2.27614161 
Au      -0.00000000      -2.67637596      -2.27614161 
Au      -0.00000000       2.67637596      -2.27614161 
