20
-1551.258045
Au       0.00000013       0.00000002      -4.28457103 
Au       0.00000006       0.00000002       4.28457104 
Au      -0.00000043       2.98090033       0.00000000 
Au      -0.00000044      -2.98090029      -0.00000000 
Au      -1.26421774      -0.00000003      -0.00000002 
Au       1.26415248      -0.00000002      -0.00000000 
Au       3.83653723      -0.00000001       0.00000001 
Au      -3.83648344      -0.00000001      -0.00000001 
Au       2.52257277      -2.28037712      -0.00000005 
Au      -2.52257189       2.28036615       0.00000005 
Au      -2.52257193      -2.28036620       0.00000005 
Au       2.52257275       2.28037709      -0.00000005 
Au      -2.34357556       0.00000001      -2.36364465 
Au       2.34358046       0.00000001      -2.36365593 
Au       2.34358047       0.00000001       2.36365596 
Au      -2.34357556       0.00000001       2.36364464 
Au       0.00000017      -1.30379297      -2.01222680 
Au       0.00000016       1.30379298      -2.01222678 
Au       0.00000015      -1.30379297       2.01222680 
Au       0.00000015       1.30379299       2.01222678 
