20
-1549.891525
Au      -0.00000000       0.00000000      -2.36450031 
Au       0.00000000      -0.00000000       2.36450031 
Au       0.00000000      -2.38408663      -0.00000000 
Au       0.00000000       2.38408663      -0.00000000 
Au       3.93655042      -0.00000000      -0.00000000 
Au      -3.93655042       0.00000000       0.00000000 
Au       1.28991975      -0.00000000       0.00000000 
Au      -1.28991975       0.00000000      -0.00000000 
Au       2.61326691      -2.25489203      -0.00000000 
Au      -2.61326691       2.25489203       0.00000000 
Au      -2.61326691      -2.25489203      -0.00000000 
Au       2.61326691       2.25489203       0.00000000 
Au       2.65217643       0.00000000       2.25940730 
Au      -2.65217643       0.00000000       2.25940730 
Au      -2.65217643      -0.00000000      -2.25940730 
Au       2.65217643      -0.00000000      -2.25940730 
Au      -0.00000000      -2.60965308       2.57858357 
Au      -0.00000000       2.60965308       2.57858357 
Au       0.00000000      -2.60965308      -2.57858357 
Au      -0.00000000       2.60965308      -2.57858357 
