20
-1550.102552
Au      -0.00000000      -0.00000000      -2.25457722 
Au       0.00000000      -0.00000000       2.25457722 
Au      -0.00000000       3.15242089      -0.00000000 
Au       0.00000000      -3.15242089      -0.00000000 
Au       1.28426017      -0.00000000      -0.00000000 
Au      -1.28426017      -0.00000000      -0.00000000 
Au       3.89901719      -0.00000000      -0.00000000 
Au      -3.89901719      -0.00000000       0.00000000 
Au      -1.29780508      -0.00000000      -4.50854506 
Au       1.29780508       0.00000000      -4.50854506 
Au       1.29780508       0.00000000       4.50854506 
Au      -1.29780508       0.00000000       4.50854506 
Au       2.66049969      -0.00000000      -2.28162125 
Au      -2.66049969       0.00000000      -2.28162125 
Au      -2.66049969      -0.00000000       2.28162125 
Au       2.66049969      -0.00000000       2.28162125 
Au      -0.00000000      -2.56542808       2.50579757 
Au      -0.00000000       2.56542808       2.50579757 
Au      -0.00000000      -2.56542808      -2.50579757 
Au      -0.00000000       2.56542808      -2.50579757 
