20
-1549.479695
Au       0.00000009      -0.00000000       3.66485132 
Au      -0.00000009       0.00000000      -3.66485132 
Au       0.00000000      -1.97098944       0.00000000 
Au       0.00000000       1.97098944      -0.00000000 
Au      -6.21361654       0.00000000       0.00000001 
Au       6.21361654       0.00000000      -0.00000001 
Au      -3.60902046       0.00000000      -0.00000003 
Au       3.60902046      -0.00000000       0.00000003 
Au       3.55686442      -0.00000000       2.59747458 
Au      -3.55686445       0.00000000       2.59747455 
Au      -3.55686442      -0.00000000      -2.59747458 
Au       3.55686445      -0.00000000      -2.59747455 
Au      -1.27362384       0.00000000      -1.35767253 
Au       1.27362370      -0.00000000      -1.35767240 
Au       1.27362384      -0.00000000       1.35767253 
Au      -1.27362370       0.00000000       1.35767240 
Au      -0.00000002       2.30063484       2.54385079 
Au      -0.00000002      -2.30063484       2.54385079 
Au       0.00000002       2.30063484      -2.54385079 
Au       0.00000002      -2.30063484      -2.54385079 
