20
-1552.291594
Au      -0.00000219      -0.00000000       4.36109302 
Au       0.00000225       0.00000000      -4.36110621 
Au       0.00000000      -1.30238258       0.00000006 
Au       0.00000000       1.30238258       0.00000006 
Au      -2.74085326       0.00000000      -0.00003830 
Au       2.74085322      -0.00000000      -0.00000362 
Au       5.34557455       0.00000000       0.00000005 
Au      -5.34557457      -0.00000000      -0.00000121 
Au      -1.35010916      -0.00000000       2.15026731 
Au       1.35012172       0.00000000       2.15025088 
Au       1.35012809       0.00000000      -2.15024497 
Au      -1.35014064      -0.00000000      -2.15022858 
Au       4.03032241       0.00000000       2.25574601 
Au      -4.03032586      -0.00000000       2.25575188 
Au      -4.03031848      -0.00000000      -2.25573944 
Au       4.03032187       0.00000000      -2.25574525 
Au       0.00000086       2.16726066      -2.62749601 
Au       0.00000086      -2.16726066      -2.62749601 
Au      -0.00000084       2.16725498       2.62749517 
Au      -0.00000084      -2.16725498       2.62749517 
