20
-1549.965299
Au       0.00000000      -0.00000000       1.98051475 
Au      -0.00000000       0.00000000      -1.98051475 
Au       0.00000000      -1.77134936      -0.00000000 
Au      -0.00000000       1.77134936       0.00000000 
Au       4.53950285       0.00000000       0.00000000 
Au      -4.53950285       0.00000000      -0.00000000 
Au      -1.90680519      -0.00000000       0.00000000 
Au       1.90680519       0.00000000      -0.00000000 
Au       2.17882695      -0.00000000       4.56816117 
Au      -2.17882695       0.00000000       4.56816117 
Au      -2.17882695      -0.00000000      -4.56816117 
Au       2.17882695      -0.00000000      -4.56816117 
Au       3.27831298       0.00000000      -2.24596098 
Au      -3.27831298       0.00000000      -2.24596098 
Au      -3.27831298       0.00000000       2.24596098 
Au       3.27831298       0.00000000       2.24596098 
Au      -0.00000000      -1.36016203       4.21016637 
Au      -0.00000000       1.36016203       4.21016637 
Au       0.00000000      -1.36016203      -4.21016637 
Au       0.00000000       1.36016203      -4.21016637 
