20
-1550.980018
Au      -0.00000000      -0.00000000      -1.27673456 
Au      -0.00000000       0.00000000       1.27673456 
Au      -0.00000000       4.88734557      -0.00000000 
Au      -0.00000000      -4.88734557      -0.00000000 
Au       2.27415726      -0.00000000       0.00000000 
Au      -2.27415726       0.00000000       0.00000000 
Au       4.83646774      -0.00000000      -0.00000000 
Au      -4.83646774       0.00000000      -0.00000000 
Au      -2.18878953       0.00000000      -2.63344916 
Au       2.18878953      -0.00000000      -2.63344916 
Au       2.18878953      -0.00000000       2.63344916 
Au      -2.18878953      -0.00000000       2.63344916 
Au      -0.00000000       2.65272465      -1.31917010 
Au      -0.00000000      -2.65272465      -1.31917010 
Au      -0.00000000       2.65272465       1.31917010 
Au      -0.00000000      -2.65272465       1.31917010 
Au       0.00000000       1.29947081       3.55838085 
Au       0.00000000      -1.29947081       3.55838085 
Au      -0.00000000       1.29947081      -3.55838085 
Au      -0.00000000      -1.29947081      -3.55838085 
