20
-1543.283972
Au      -0.00000000       1.33708597      -0.00000000 
Au       0.00000000      -1.33708597       0.00000000 
Au       0.00000000       3.92581786       0.00000000 
Au      -0.00000000      -3.92581786       0.00000000 
Au       2.24380972       0.00000000      -0.00000000 
Au      -2.24380972      -0.00000000      -0.00000000 
Au       4.83474514      -0.00000000       0.00000000 
Au      -4.83474514       0.00000000      -0.00000000 
Au      -1.28030062      -6.18026859      -0.00000000 
Au       1.28030062       6.18026859       0.00000000 
Au       1.28030062      -6.18026859      -0.00000000 
Au      -1.28030062       6.18026859       0.00000000 
Au      -3.57555719       0.00000000       2.25320684 
Au       3.57555719       0.00000000       2.25320684 
Au       3.57555719      -0.00000000      -2.25320684 
Au      -3.57555719      -0.00000000      -2.25320684 
Au      -0.00000000      -2.60802082      -2.26120307 
Au       0.00000000       2.60802082      -2.26120307 
Au      -0.00000000      -2.60802082       2.26120307 
Au       0.00000000       2.60802082       2.26120307 
