20
-1547.979166
Au       0.00000000      -2.34645414       0.00000000 
Au      -0.00000000       2.34645414      -0.00000000 
Au       0.00000000       4.93878601      -0.00000000 
Au      -0.00000000      -4.93878601      -0.00000000 
Au       3.89640195       0.00000000       0.00000000 
Au      -3.89640195      -0.00000000      -0.00000000 
Au       1.29933046       0.00000000       0.00000000 
Au      -1.29933046       0.00000000      -0.00000000 
Au      -2.63413477       2.27306833      -0.00000000 
Au       2.63413477      -2.27306833       0.00000000 
Au       2.63413477       2.27306833       0.00000000 
Au      -2.63413477      -2.27306833      -0.00000000 
Au       1.36063560       0.00000000       2.60702567 
Au      -1.36063560       0.00000000       2.60702567 
Au      -1.36063560      -0.00000000      -2.60702567 
Au       1.36063560      -0.00000000      -2.60702567 
Au       0.00000000      -2.22645177       2.57945500 
Au       0.00000000       2.22645177       2.57945500 
Au      -0.00000000      -2.22645177      -2.57945500 
Au      -0.00000000       2.22645177      -2.57945500 
