20
-1552.032867
Au       0.00000000      -3.84113997      -0.00000000 
Au       0.00000000       3.84113997       0.00000000 
Au       0.00000000      -1.26278334      -0.00000000 
Au      -0.00000000       1.26278334      -0.00000000 
Au      -2.56686901       0.00000000      -0.00000000 
Au       2.56686901       0.00000000      -0.00000000 
Au      -5.20583661      -0.00000000       0.00000000 
Au       5.20583661       0.00000000       0.00000000 
Au      -3.90621245      -0.00000000       2.25293884 
Au       3.90621245       0.00000000       2.25293884 
Au       3.90621245       0.00000000      -2.25293884 
Au      -3.90621245      -0.00000000      -2.25293884 
Au      -1.28718006      -0.00000000      -2.26645320 
Au       1.28718006      -0.00000000      -2.26645320 
Au       1.28718006       0.00000000       2.26645320 
Au      -1.28718006       0.00000000       2.26645320 
Au      -0.00000000       2.39285272       2.31687068 
Au       0.00000000      -2.39285272       2.31687068 
Au       0.00000000       2.39285272      -2.31687068 
Au      -0.00000000      -2.39285272      -2.31687068 
