20
-1549.873307
Au       0.00000000      -3.85923083      -0.00000000 
Au       0.00000000       3.85923083      -0.00000000 
Au      -0.00000000      -1.27149371      -0.00000000 
Au      -0.00000000       1.27149371      -0.00000000 
Au      -5.20387519      -0.00000000       0.00000000 
Au       5.20387519       0.00000000       0.00000000 
Au      -2.54866496      -0.00000000       0.00000005 
Au       2.54866496       0.00000000       0.00000005 
Au      -1.27758957       0.00000000      -2.21205366 
Au       1.27758957      -0.00000000      -2.21205366 
Au       1.27758967       0.00000000       2.21205361 
Au      -1.27758967       0.00000000       2.21205361 
Au      -3.87300679      -0.00000000      -2.22832897 
Au       3.87300679      -0.00000000      -2.22832897 
Au       3.87300677      -0.00000000       2.22832895 
Au      -3.87300677       0.00000000       2.22832895 
Au      -0.00000000       1.30721175       4.07267877 
Au       0.00000000      -1.30721175       4.07267877 
Au      -0.00000000       1.30721174      -4.07267875 
Au       0.00000000      -1.30721174      -4.07267875 
