20
-1544.882763
Au       0.00000000       0.00000000      -4.50376453 
Au       0.00000000       0.00000000       4.50376453 
Au       0.00000000      -0.00000000      -1.94056235 
Au      -0.00000000      -0.00000000       1.94056235 
Au      -3.15768516      -3.15768516      -0.00000000 
Au       3.15768516       3.15768516      -0.00000000 
Au       3.15768516      -3.15768516      -0.00000000 
Au      -3.15768516       3.15768516      -0.00000000 
Au       1.34553799       1.34553799      -0.00000000 
Au      -1.34553799      -1.34553799       0.00000000 
Au      -1.34553799       1.34553799       0.00000000 
Au       1.34553799      -1.34553799      -0.00000000 
Au       2.63434922       0.00000000       1.86427409 
Au      -2.63434922      -0.00000000       1.86427409 
Au      -0.00000000       2.63434922       1.86427409 
Au       0.00000000      -2.63434922       1.86427409 
Au      -2.63434922       0.00000000      -1.86427409 
Au       2.63434922      -0.00000000      -1.86427409 
Au       0.00000000       2.63434922      -1.86427409 
Au      -0.00000000      -2.63434922      -1.86427409 
