20
-1551.335931
Au       0.00000000      -4.84930891      -0.00000000 
Au      -0.00000000       4.84930891       0.00000000 
Au      -0.00000000       2.28603230      -0.00000000 
Au       0.00000000      -2.28603230       0.00000000 
Au      -3.89313394      -0.00000000       0.00000000 
Au       3.89313394      -0.00000000      -0.00000000 
Au      -1.28287747       0.00000000       0.00000000 
Au       1.28287747       0.00000000      -0.00000000 
Au      -2.54308375      -0.00000000      -2.25812493 
Au       2.54308375      -0.00000000      -2.25812493 
Au       2.54308375      -0.00000000       2.25812493 
Au      -2.54308375      -0.00000000       2.25812493 
Au      -1.28379919       0.00000000      -4.50131041 
Au       1.28379919       0.00000000      -4.50131041 
Au       1.28379919       0.00000000       4.50131041 
Au      -1.28379919       0.00000000       4.50131041 
Au      -0.00000000      -1.27642831       2.42557191 
Au      -0.00000000       1.27642831       2.42557191 
Au       0.00000000      -1.27642831      -2.42557191 
Au       0.00000000       1.27642831      -2.42557191 
