20
-1548.841594
Au       0.00000000      -5.06464330       0.00000000 
Au      -0.00000000       5.06464330       0.00000000 
Au      -0.00000000      -2.51129350       0.00000000 
Au       0.00000000       2.51129350      -0.00000000 
Au       3.83861754      -0.00000000       0.00000000 
Au      -3.83861754      -0.00000000      -0.00000000 
Au      -1.26208465       0.00000000       0.00000000 
Au       1.26208465      -0.00000000       0.00000000 
Au       2.44224043       0.00000000      -2.30653013 
Au      -2.44224043      -0.00000000      -2.30653013 
Au      -2.44224043      -0.00000000       2.30653013 
Au       2.44224043      -0.00000000       2.30653013 
Au       0.00000000      -1.27022854      -2.23695752 
Au      -0.00000000       1.27022854      -2.23695752 
Au      -0.00000000      -1.27022854       2.23695752 
Au      -0.00000000       1.27022854       2.23695752 
Au      -0.00000000      -1.29175120       4.82548582 
Au       0.00000000       1.29175120       4.82548582 
Au      -0.00000000      -1.29175120      -4.82548582 
Au       0.00000000       1.29175120      -4.82548582 
