20
-1551.335927
Au      -0.00000000       1.28280865       0.00000000 
Au      -0.00000000      -1.28280865      -0.00000000 
Au      -0.00000000       3.89266201      -0.00000000 
Au       0.00000000      -3.89266201      -0.00000000 
Au       4.84913868       0.00000000       0.00000000 
Au      -4.84913868      -0.00000000      -0.00000000 
Au       2.28578092      -0.00000000       0.00000000 
Au      -2.28578092       0.00000000       0.00000000 
Au      -1.27647873      -0.00000000       2.42619388 
Au       1.27647873       0.00000000       2.42619388 
Au       1.27647873       0.00000000      -2.42619388 
Au      -1.27647873      -0.00000000      -2.42619388 
Au      -0.00000000       2.54231682       2.25845346 
Au      -0.00000000      -2.54231682       2.25845346 
Au       0.00000000       2.54231682      -2.25845346 
Au       0.00000000      -2.54231682      -2.25845346 
Au       0.00000000       1.28384911       4.50216609 
Au      -0.00000000      -1.28384911       4.50216609 
Au      -0.00000000       1.28384911      -4.50216609 
Au       0.00000000      -1.28384911      -4.50216609 
