20
-1553.448187
Au      -0.00000000      -0.00000000       1.26204299 
Au      -0.00000000       0.00000000      -1.26204299 
Au       0.00000000      -0.00000000       3.82402456 
Au      -0.00000000      -0.00000000      -3.82402456 
Au       0.00000000      -2.36411531       0.00000000 
Au       0.00000000       2.36411531      -0.00000000 
Au      -4.65158151      -0.00000000      -0.00000000 
Au       4.65158151       0.00000000       0.00000000 
Au       2.39283971      -1.33144740       0.00000000 
Au      -2.39283971       1.33144740       0.00000000 
Au      -2.39283971      -1.33144740       0.00000000 
Au       2.39283971       1.33144740      -0.00000000 
Au       1.31285684       1.95653454       2.37569660 
Au      -1.31285684      -1.95653454       2.37569660 
Au      -1.31285684       1.95653454      -2.37569660 
Au       1.31285684      -1.95653454      -2.37569660 
Au      -1.31285684      -1.95653454      -2.37569660 
Au       1.31285684       1.95653454      -2.37569660 
Au       1.31285684      -1.95653454       2.37569660 
Au      -1.31285684       1.95653454       2.37569660 
