20
-1550.733463
Au       0.00000000      -0.00000000      -2.42137940 
Au       0.00000000      -0.00000000       2.42137940 
Au      -0.00000000       0.00000000      -5.03910391 
Au      -0.00000000      -0.00000000       5.03910391 
Au      -0.00000000       2.32160877       0.00000000 
Au       0.00000000      -2.32160877       0.00000000 
Au       1.30566938       0.00000000      -0.00000000 
Au      -1.30566938      -0.00000000       0.00000000 
Au      -3.59453042       1.30487287      -0.00000000 
Au       3.59453042      -1.30487287      -0.00000000 
Au       3.59453042       1.30487287      -0.00000000 
Au      -3.59453042      -1.30487287       0.00000000 
Au      -1.82496073       1.83233651       1.86427589 
Au       1.82496073      -1.83233651       1.86427589 
Au       1.82496073       1.83233651      -1.86427589 
Au      -1.82496073      -1.83233651      -1.86427589 
Au       1.82496073      -1.83233651      -1.86427589 
Au      -1.82496073       1.83233651      -1.86427589 
Au      -1.82496073      -1.83233651       1.86427589 
Au       1.82496073       1.83233651       1.86427589 
