20
-1551.699198
Au       0.00001032       0.00000000      -4.65771331 
Au      -0.00001162       0.00000000       4.65768123 
Au       0.00000794       0.00000000      -2.04004820 
Au      -0.00004268      -0.00000001       2.04004338 
Au      -0.00002151      -1.90438564      -0.00001988 
Au      -0.00002143       1.90438564      -0.00001988 
Au       1.80040792       0.00000003       0.00004007 
Au      -1.80039351      -0.00000003       0.00003546 
Au      -2.53948358       2.58486697      -0.00002987 
Au       2.53948280      -2.58487306       0.00001668 
Au       2.53948277       2.58487304       0.00001669 
Au      -2.53948356      -2.58486695      -0.00002988 
Au       2.23738004      -1.32841415      -2.25874584 
Au      -2.23736955       1.32842926      -2.25871022 
Au      -2.23742585      -1.32841310       2.25874600 
Au       2.23744842       1.32844361       2.25872381 
Au      -2.23742584       1.32841310       2.25874600 
Au       2.23744843      -1.32844360       2.25872382 
Au       2.23738005       1.32841415      -2.25874584 
Au      -2.23736956      -1.32842926      -2.25871021 
