20
-1550.582139
Au      -0.00004112       0.00003651       1.98206239 
Au       0.00001401      -0.00003667      -1.98206240 
Au       0.00000006      -0.00000013       4.59610067 
Au      -0.00000013       0.00000013      -4.59610068 
Au       1.86551957      -0.00000000      -0.00000136 
Au      -1.86551843      -0.00000000       0.00000136 
Au      -0.00000033       1.86551900       0.00000181 
Au      -0.00000033      -1.86551900      -0.00000181 
Au      -2.60537333      -2.60537337       0.00000340 
Au       2.60537238       2.60537234      -0.00000340 
Au       2.60537240      -2.60537236       0.00002414 
Au      -2.60537334       2.60537338      -0.00002416 
Au      -1.80107507      -1.80107490       2.29986020 
Au       1.80107652       1.80107669       2.29986246 
Au       1.80109921      -1.80109918       2.29985222 
Au      -1.80105252       1.80105255       2.29987053 
Au       1.80105958      -1.80105961      -2.29987024 
Au      -1.80109205       1.80109203      -2.29985248 
Au      -1.80106934      -1.80106951      -2.29986274 
Au       1.80108227       1.80108209      -2.29985993 
