20
-1550.043598
Au      -0.00000000      -0.00000000      -3.82603678 
Au      -0.00000000      -0.00000000       3.82603677 
Au       0.00000017       0.00000000      -1.27989945 
Au       0.00000017       0.00000000       1.27989946 
Au      -2.24706038       0.00000000      -0.00000000 
Au       2.24706000       0.00000000      -0.00000000 
Au      -4.84875828       0.00000000       0.00000000 
Au       4.84875838       0.00000000      -0.00000000 
Au       3.41300554       2.28391309       0.00000000 
Au      -3.41300551      -2.28391302       0.00000000 
Au      -3.41300551       2.28391302       0.00000000 
Au       3.41300554      -2.28391309       0.00000000 
Au       2.03303872       1.31778547      -2.31019452 
Au      -2.03303875      -1.31778550      -2.31019454 
Au      -2.03303875       1.31778550       2.31019454 
Au       2.03303872      -1.31778547       2.31019452 
Au      -2.03303875      -1.31778550       2.31019454 
Au       2.03303872       1.31778547       2.31019452 
Au       2.03303872      -1.31778547      -2.31019452 
Au      -2.03303875       1.31778550      -2.31019454 
