20
-1550.966515
Au      -0.00000000      -0.00000000       2.31743769 
Au       0.00000000       0.00000000      -2.31743769 
Au      -0.00000000      -3.89397822       0.00000000 
Au       0.00000000       3.89397822       0.00000000 
Au      -0.00000000       1.30817730      -0.00000000 
Au      -0.00000000      -1.30817730      -0.00000000 
Au      -2.26596052      -0.00000000      -0.00000000 
Au       2.26596052      -0.00000000      -0.00000000 
Au       2.34876023      -2.66051371       0.00000000 
Au      -2.34876023       2.66051371       0.00000000 
Au      -2.34876023      -2.66051371       0.00000000 
Au       2.34876023       2.66051371       0.00000000 
Au       1.72801554      -1.90768922       2.37718689 
Au      -1.72801554       1.90768922       2.37718689 
Au      -1.72801554      -1.90768922      -2.37718689 
Au       1.72801554       1.90768922      -2.37718689 
Au      -1.72801554       1.90768922      -2.37718689 
Au       1.72801554      -1.90768922      -2.37718689 
Au       1.72801554       1.90768922       2.37718689 
Au      -1.72801554      -1.90768922       2.37718689 
