20
-1553.710575
Au       0.00000000       0.00000000      -4.03004325 
Au       0.00000000      -0.00000000       4.03004324 
Au      -0.00000000      -3.91387118      -0.00000000 
Au      -0.00000000       3.91387118      -0.00000001 
Au      -0.00000000      -1.30145317       0.00000000 
Au      -0.00000000       1.30145317       0.00000001 
Au       2.32810702      -0.00000000      -0.00000000 
Au      -2.32810702      -0.00000000      -0.00000000 
Au       2.26977870      -2.60792610       0.00000000 
Au      -2.26977870       2.60792610       0.00000000 
Au      -2.26977870      -2.60792610       0.00000000 
Au       2.26977870       2.60792610       0.00000000 
Au      -1.42336302       1.33230516       2.23635585 
Au       1.42336302      -1.33230516       2.23635585 
Au       1.42336301       1.33230516      -2.23635585 
Au      -1.42336301      -1.33230516      -2.23635585 
Au       1.42336301      -1.33230516      -2.23635585 
Au      -1.42336301       1.33230516      -2.23635585 
Au      -1.42336302      -1.33230516       2.23635585 
Au       1.42336302       1.33230516       2.23635585 
