20
-1553.700014
Au       0.00000000       0.00002089       3.53339188 
Au      -0.00000000      -0.00002093      -3.53339177 
Au      -0.00000000      -2.41265020       0.00000545 
Au       0.00000000       2.41265019      -0.00000514 
Au       1.31816104       0.00000000       0.00000005 
Au      -1.31816104       0.00000000       0.00000005 
Au       3.95761619      -0.00000000       0.00000002 
Au      -3.95761619      -0.00000000       0.00000002 
Au       2.68482363      -2.27216746       0.00000712 
Au      -2.68482362       2.27216746      -0.00000698 
Au      -2.68482363      -2.27216746       0.00000712 
Au       2.68482362       2.27216746      -0.00000698 
Au      -1.32699720       1.79358546      -2.18706647 
Au       1.32698289      -1.79357271      -2.18708410 
Au       1.32698296       1.79357290       2.18708387 
Au      -1.32699725      -1.79358563       2.18706627 
Au       1.32699725      -1.79358563       2.18706627 
Au      -1.32698296       1.79357290       2.18708387 
Au      -1.32698289      -1.79357271      -2.18708410 
Au       1.32699720       1.79358546      -2.18706647 
