20
-1553.699996
Au      -0.00000000      -0.00000890      -3.53646616 
Au       0.00000000      -0.00004863       3.53646628 
Au       0.00000000       2.41279398       0.00000505 
Au       0.00000000      -2.41279624      -0.00000416 
Au      -3.95770740       0.00000191       0.00000024 
Au       3.95770740       0.00000191       0.00000024 
Au       1.31806040      -0.00000056      -0.00000002 
Au      -1.31806040      -0.00000056      -0.00000002 
Au       2.68479204      -2.27212177      -0.00000676 
Au      -2.68478005       2.27212040       0.00000662 
Au      -2.68479204      -2.27212177      -0.00000676 
Au       2.68478005       2.27212039       0.00000662 
Au      -1.32692346      -1.79126047      -2.18672578 
Au       1.32692892       1.79126301      -2.18672331 
Au       1.32690969      -1.79124910       2.18674289 
Au      -1.32694305       1.79127649       2.18670562 
Au       1.32694305       1.79127649       2.18670562 
Au      -1.32690969      -1.79124910       2.18674289 
Au      -1.32692892       1.79126301      -2.18672331 
Au       1.32692346      -1.79126047      -2.18672578 
