20
-1551.55123
Au      -0.00000000      -0.00000046       1.29120688 
Au       0.00000000      -0.00000046      -1.29120688 
Au      -0.00000003       4.64695496       0.00000000 
Au       0.00000003      -4.64697125       0.00000000 
Au       2.28128081      -0.00004343       0.00000000 
Au      -2.28128081      -0.00004409      -0.00000000 
Au      -4.93660089      -0.00000203      -0.00000000 
Au       4.93660089      -0.00000199       0.00000000 
Au      -1.31695420       2.40043864       0.00000000 
Au       1.31697746      -2.40040371      -0.00000000 
Au       1.31695432       2.40043840      -0.00000000 
Au      -1.31697758      -2.40040346       0.00000000 
Au       3.58717058       1.83403643      -1.31049883 
Au      -3.58716306      -1.83402671      -1.31048734 
Au      -3.58717064       1.83403651       1.31049892 
Au       3.58716311      -1.83402679       1.31048743 
Au      -3.58716306      -1.83402671       1.31048734 
Au       3.58717058       1.83403643       1.31049883 
Au       3.58716311      -1.83402679      -1.31048743 
Au      -3.58717064       1.83403651      -1.31049892 
