20
-1551.559256
Au      -0.00000000       0.00000000       1.92538029 
Au      -0.00000000      -0.00000000      -1.92538029 
Au      -3.62396462       0.00000000       0.00000000 
Au       3.62396462       0.00000000      -0.00000000 
Au      -3.57111068       2.59781774      -0.00000000 
Au       3.57111068      -2.59781774      -0.00000000 
Au       3.57111068       2.59781774      -0.00000000 
Au      -3.57111068      -2.59781774       0.00000000 
Au       1.29321835      -3.92127925      -0.00000000 
Au      -1.29321835       3.92127925      -0.00000000 
Au      -1.29321835      -3.92127925       0.00000000 
Au       1.29321835       3.92127925      -0.00000000 
Au       1.30921357      -1.29339011      -0.00000000 
Au      -1.30921357       1.29339011       0.00000000 
Au      -1.30921357      -1.29339011       0.00000000 
Au       1.30921357       1.29339011      -0.00000000 
Au      -3.59799893       5.16977323      -0.00000000 
Au       3.59799893      -5.16977323      -0.00000000 
Au       3.59799893       5.16977323       0.00000000 
Au      -3.59799893      -5.16977323      -0.00000000 
