20
-1550.892601
Au       0.00000000       0.00000000       3.88413054 
Au       0.00000000       0.00000000      -3.88413054 
Au       0.00000067       0.00000000       1.28575412 
Au       0.00000067       0.00000000      -1.28575412 
Au      -3.58586323      -0.00025232       0.00000000 
Au       3.58586170       0.00025232      -0.00000000 
Au       0.00006761      -3.72755171       0.00000000 
Au      -0.00006768       3.72755171       0.00000000 
Au       1.66816493       1.74065808      -0.00000000 
Au      -1.66816478      -1.74065825       0.00000000 
Au      -1.66847872       1.74053018      -0.00000000 
Au       1.66847887      -1.74053001       0.00000000 
Au       1.31028955       1.89917659      -2.60910959 
Au      -1.31028956      -1.89917661      -2.60910960 
Au      -1.30971099       1.89950323      -2.60904412 
Au       1.30971098      -1.89950321      -2.60904411 
Au      -1.30971099       1.89950323       2.60904412 
Au       1.30971098      -1.89950321       2.60904411 
Au       1.31028955       1.89917659       2.60910959 
Au      -1.31028956      -1.89917661       2.60910960 
