20
-1548.608559
Au       0.00000000      -0.00000000       2.24834055 
Au       0.00000000      -0.00000000      -2.24834055 
Au       1.31378419       0.00000000      -0.00000000 
Au      -1.31378419      -0.00000000       0.00000000 
Au      -3.56461548      -1.28776031      -0.00000000 
Au       3.56461548       1.28776031      -0.00000000 
Au       3.56461548      -1.28776031      -0.00000000 
Au      -3.56461548       1.28776031      -0.00000000 
Au      -6.13283161       1.29909675       0.00000000 
Au       6.13283161      -1.29909675      -0.00000000 
Au       6.13283161       1.29909675      -0.00000000 
Au      -6.13283161      -1.29909675      -0.00000000 
Au       3.59811160      -3.88340235       0.00000000 
Au      -3.59811160       3.88340235      -0.00000000 
Au      -3.59811160      -3.88340235       0.00000000 
Au       3.59811160       3.88340235       0.00000000 
Au       1.31471643      -2.62558321       0.00000000 
Au      -1.31471643       2.62558321       0.00000000 
Au      -1.31471643      -2.62558321       0.00000000 
Au       1.31471643       2.62558321       0.00000000 
