20
-1551.135105
Au       0.00000000       0.00000000       2.27022749 
Au       0.00000000       0.00000000      -2.27022749 
Au      -1.29721320      -0.00000000      -0.00000000 
Au       1.29721320       0.00000000       0.00000000 
Au       3.55664191      -3.90971991       0.00000000 
Au      -3.55664191       3.90971991      -0.00000000 
Au      -3.55664191      -3.90971991       0.00000000 
Au       3.55664191       3.90971991      -0.00000000 
Au      -1.28437534       2.58498248       0.00000000 
Au       1.28437534      -2.58498248      -0.00000000 
Au       1.28437534       2.58498248       0.00000000 
Au      -1.28437534      -2.58498248       0.00000000 
Au      -3.58967947      -1.30167491      -0.00000000 
Au       3.58967947       1.30167491      -0.00000000 
Au       3.58967947      -1.30167491       0.00000000 
Au      -3.58967947       1.30167491       0.00000000 
Au       1.28838193      -5.17394166       0.00000000 
Au      -1.28838193       5.17394166       0.00000000 
Au      -1.28838193      -5.17394166       0.00000000 
Au       1.28838193       5.17394166       0.00000000 
