20
-1551.459589
Au      -0.00000000       3.54627699      -0.00000000 
Au       0.00000000      -3.54627699      -0.00000000 
Au       3.54536119      -0.00000000      -0.00000000 
Au      -3.54536119       0.00000000       0.00000000 
Au      -2.61687433       3.50232402      -0.00000000 
Au       2.61687433      -3.50232402      -0.00000000 
Au       2.61687433       3.50232403       0.00000000 
Au      -2.61687433      -3.50232403      -0.00000000 
Au      -4.86943548      -4.77420185       0.00000000 
Au       4.86943548       4.77420185       0.00000000 
Au       4.86943547      -4.77420185       0.00000000 
Au      -4.86943547       4.77420185      -0.00000000 
Au      -1.28447945      -1.28336067      -0.00000000 
Au       1.28447945       1.28336067       0.00000000 
Au       1.28447945      -1.28336066      -0.00000000 
Au      -1.28447945       1.28336066      -0.00000000 
Au      -4.90050618       2.19238898       0.00000000 
Au       4.90050618      -2.19238898      -0.00000000 
Au       4.90050617       2.19238897      -0.00000000 
Au      -4.90050617      -2.19238897       0.00000000 
