20
-1542.857331
Au      -3.82965358       0.00000017       0.00000001 
Au       3.82965357      -0.00000029      -0.00000001 
Au       1.26017663      -0.00000255       0.00000005 
Au      -1.26017657      -0.00000228      -0.00000005 
Au      -1.26720984       5.05604720      -0.00000000 
Au       1.26721085      -5.05604988       0.00000000 
Au       1.26720977       5.05604721       0.00000000 
Au      -1.26721081      -5.05604987      -0.00000000 
Au      -7.46153598       3.45136523       0.00000000 
Au       7.46153601      -3.45136528      -0.00000000 
Au       7.46153592       3.45136513      -0.00000000 
Au      -7.46153596      -3.45136518       0.00000000 
Au       6.06475464      -1.29827340       0.00000000 
Au      -6.06475456       1.29827339      -0.00000000 
Au      -6.06475440      -1.29827340      -0.00000000 
Au       6.06475432       1.29827340       0.00000000 
Au       1.58730497      -2.53052140      -0.00000001 
Au      -1.58730430       2.53052665       0.00000001 
Au      -1.58730478      -2.53052177       0.00000001 
Au       1.58730408       2.53052689      -0.00000001 
