20
-1551.115428
Au       0.00000464       0.00000092      -3.90030316 
Au       0.00000398      -0.00000073       3.90031613 
Au       0.00000663       0.00000745       1.29187227 
Au      -0.00000190      -0.00000720      -1.29188987 
Au      -3.40997997      -3.37887330       0.00000039 
Au       3.40997589       3.37886807       0.00000067 
Au       3.41144924      -3.37679405       0.00000082 
Au      -3.41145314       3.37679905       0.00000120 
Au       1.82577609       1.35477902       0.00001349 
Au      -1.82577255      -1.35477348      -0.00000934 
Au      -1.82709682       1.35295070       0.00000910 
Au       1.82710051      -1.35295628      -0.00000483 
Au       1.87885474       1.31426076       2.62417127 
Au      -1.87885946      -1.31426660       2.62418063 
Au      -1.88009986       1.31248266       2.62413508 
Au       1.88009696      -1.31247779       2.62414247 
Au      -1.88009679       1.31247869      -2.62414326 
Au       1.88009351      -1.31247422      -2.62413771 
Au       1.87885300       1.31425823      -2.62418332 
Au      -1.87885470      -1.31426190      -2.62417205 
