20
-1553.790336
Au      -0.00002356       0.00000000      -5.94676842 
Au      -0.00001788      -0.00000000       5.94676830 
Au       0.00002468      -0.00000000      -2.26644217 
Au       0.00000572       0.00000000       2.26644232 
Au       1.34850867       0.00000000       0.00000708 
Au      -1.34850863       0.00000000      -0.00000672 
Au      -3.96363168      -0.00000000      -0.00000764 
Au       3.96364064      -0.00000000       0.00000762 
Au       2.65737474       0.00000000       2.27605419 
Au      -2.65737369       0.00000000       2.27604507 
Au      -2.65736055      -0.00000000      -2.27604777 
Au       2.65738786      -0.00000000      -2.27605133 
Au      -1.32420410      -1.32624038      -4.12349098 
Au       1.32421748       1.32622486      -4.12352667 
Au       1.32419765      -1.32623393       4.12351913 
Au      -1.32422419       1.32623142       4.12349825 
Au       1.32419765       1.32623393       4.12351913 
Au      -1.32422419      -1.32623142       4.12349825 
Au      -1.32420410       1.32624038      -4.12349098 
Au       1.32421748      -1.32622486      -4.12352667 
