20
-1551.699193
Au       0.00000000      -0.00000000      -1.90454188 
Au      -0.00000003      -0.00000000       1.90454188 
Au       0.00000000      -4.65640296       0.00000000 
Au      -0.00000001       4.65640295      -0.00000000 
Au      -0.00000506       2.03905387       0.00000000 
Au       0.00000382      -2.03905388      -0.00000000 
Au       1.80037958      -0.00000078      -0.00000000 
Au      -1.80037953       0.00000079       0.00000000 
Au       2.53942840       0.00000047      -2.58503293 
Au      -2.53942843      -0.00000048      -2.58503298 
Au      -2.53942841      -0.00000048       2.58503297 
Au       2.53942841       0.00000047       2.58503294 
Au      -2.23697908      -2.25870530       1.32878352 
Au       2.23697943       2.25870531       1.32878378 
Au       2.23697715      -2.25870536      -1.32878182 
Au      -2.23697687       2.25870537      -1.32878159 
Au       2.23697943       2.25870531      -1.32878378 
Au      -2.23697908      -2.25870530      -1.32878352 
Au      -2.23697687       2.25870536       1.32878159 
Au       2.23697714      -2.25870536       1.32878182 
