20
-1551.741725
Au       0.00000000      -0.00000000      -2.10202642 
Au       0.00000000      -0.00000000       2.10202642 
Au       0.00000000       4.37617009      -0.00000000 
Au       0.00000000      -4.37617009      -0.00000000 
Au       0.00000000      -1.79985079       0.00000000 
Au       0.00000000       1.79985079       0.00000000 
Au      -4.13666032      -0.00000000      -0.00000000 
Au       4.13666032       0.00000000      -0.00000000 
Au      -2.18261130       0.00000000      -3.55825260 
Au       2.18261130       0.00000000      -3.55825260 
Au       2.18261130      -0.00000000       3.55825260 
Au      -2.18261130       0.00000000       3.55825260 
Au       2.26088008       1.31800287       1.30937727 
Au      -2.26088008      -1.31800287       1.30937727 
Au      -2.26088008       1.31800287      -1.30937727 
Au       2.26088008      -1.31800287      -1.30937727 
Au      -2.26088008      -1.31800287      -1.30937727 
Au       2.26088008       1.31800287      -1.30937727 
Au       2.26088008      -1.31800287       1.30937727 
Au      -2.26088008       1.31800287       1.30937727 
