20
-1553.700014
Au      -0.00000000      -0.00000007      -2.41289331 
Au       0.00000000       0.00000007       2.41289331 
Au      -0.00000000       3.53354106      -0.00000021 
Au       0.00000000      -3.53354106       0.00000033 
Au      -3.95758643      -0.00000000       0.00000000 
Au       3.95758643      -0.00000000       0.00000000 
Au       1.31817684      -0.00000000      -0.00000000 
Au      -1.31817684      -0.00000000      -0.00000000 
Au      -2.68476420      -0.00000009      -2.27214877 
Au       2.68476420      -0.00000009      -2.27214877 
Au       2.68476422       0.00000009       2.27214878 
Au      -2.68476422       0.00000009       2.27214878 
Au      -1.32687448      -2.18707805       1.79364091 
Au       1.32687467       2.18707783       1.79364107 
Au       1.32687471      -2.18707778      -1.79364111 
Au      -1.32687452       2.18707801      -1.79364094 
Au       1.32687452       2.18707801      -1.79364094 
Au      -1.32687471      -2.18707778      -1.79364111 
Au      -1.32687467       2.18707783       1.79364107 
Au       1.32687448      -2.18707805       1.79364091 
