20
-1550.228199
Au       0.00000000      -0.00000000       3.18351069 
Au      -0.00000000       0.00000000      -3.18351069 
Au      -1.27105811       0.00000000      -0.00000000 
Au       1.27105811      -0.00000000      -0.00000000 
Au      -2.02558641       0.00000000      -4.85499068 
Au       2.02558641       0.00000000      -4.85499068 
Au       2.02558641      -0.00000000       4.85499068 
Au      -2.02558641       0.00000000       4.85499068 
Au       4.44695610       0.00000000       3.88790314 
Au      -4.44695610      -0.00000000       3.88790314 
Au      -4.44695611       0.00000000      -3.88790314 
Au       4.44695611      -0.00000000      -3.88790314 
Au       2.42704419      -0.00000000      -2.28052125 
Au      -2.42704419       0.00000000      -2.28052125 
Au      -2.42704419       0.00000000       2.28052125 
Au       2.42704419      -0.00000000       2.28052125 
Au      -4.85180542       0.00000000       1.30784117 
Au       4.85180542       0.00000000       1.30784117 
Au       4.85180542      -0.00000000      -1.30784117 
Au      -4.85180542      -0.00000000      -1.30784117 
