20
-1551.459571
Au       0.00000000       0.00000000      -3.54632946 
Au       0.00000000       0.00000000       3.54632946 
Au      -3.54548970       0.00000000       0.00000000 
Au       3.54548970       0.00000000       0.00000000 
Au      -4.89932378      -0.00000000       2.19292571 
Au       4.89932378       0.00000000       2.19292571 
Au       4.89932378       0.00000000      -2.19292571 
Au      -4.89932378      -0.00000000      -2.19292571 
Au      -2.61606805       0.00000000       3.50267857 
Au       2.61606805       0.00000000       3.50267857 
Au       2.61606805      -0.00000000      -3.50267857 
Au      -2.61606805       0.00000000      -3.50267857 
Au       4.86831709      -0.00000000       4.77476826 
Au      -4.86831709      -0.00000000       4.77476826 
Au      -4.86831709      -0.00000000      -4.77476826 
Au       4.86831709      -0.00000000      -4.77476826 
Au      -1.28454073       0.00000000      -1.28336518 
Au       1.28454073       0.00000000      -1.28336518 
Au       1.28454073       0.00000000       1.28336518 
Au      -1.28454073      -0.00000000       1.28336518 
