20
-1551.374442
Au       3.55259088       0.00000000       2.19486758 
Au      -3.55259088       0.00000000       2.19486758 
Au       0.00000000       3.55259087       2.19486758 
Au       0.00000000      -3.55259087       2.19486758 
Au       4.14010872       0.00000000      -1.55727139 
Au      -4.14010872       0.00000000      -1.55727139 
Au       0.00000000       4.14010873      -1.55727139 
Au       0.00000000      -4.14010873      -1.55727139 
Au      -1.83604874       0.00000000      -2.72473603 
Au       1.83604874       0.00000000      -2.72473603 
Au       0.00000000      -1.83604871      -2.72473599 
Au       0.00000000       1.83604871      -2.72473599 
Au      -1.99783173       0.00000000      -0.04995147 
Au       1.99783173       0.00000000      -0.04995147 
Au       0.00000000      -1.99783176      -0.04995141 
Au       0.00000000       1.99783176      -0.04995141 
Au       1.31927067       1.31927067       2.13709127 
Au      -1.31927067      -1.31927067       2.13709127 
Au      -1.31927067       1.31927067       2.13709127 
Au       1.31927067      -1.31927067       2.13709127 
