20
-1551.742881
Au       0.00000000       0.00000000      -3.56251252 
Au      -0.00000000      -0.00000000       3.56251252 
Au      -6.17344385      -0.00000000      -0.00000000 
Au       6.17344385      -0.00000000       0.00000000 
Au       2.59158682       0.00000000      -3.57878586 
Au      -2.59158682       0.00000000      -3.57878586 
Au      -2.59158682      -0.00000000       3.57878586 
Au       2.59158682      -0.00000000       3.57878586 
Au       3.91893065       0.00000000       1.29170860 
Au      -3.91893065       0.00000000       1.29170860 
Au      -3.91893065       0.00000000      -1.29170860 
Au       3.91893065       0.00000000      -1.29170860 
Au       1.30328219      -0.00000000       1.29889457 
Au      -1.30328219       0.00000000       1.29889457 
Au      -1.30328219       0.00000000      -1.29889457 
Au       1.30328219      -0.00000000      -1.29889457 
Au       5.17994766       0.00000000      -3.58172813 
Au      -5.17994766      -0.00000000      -3.58172813 
Au      -5.17994766      -0.00000000       3.58172813 
Au       5.17994766       0.00000000       3.58172813 
