20
-1551.561585
Au      -0.00000001      -0.00000000       3.54435485 
Au       0.00000001       0.00000000      -3.54435485 
Au      -3.54113603      -0.00000000      -0.00000000 
Au       3.54113603       0.00000000       0.00000000 
Au       1.30667059       0.00000000       1.30649292 
Au      -1.30667059       0.00000000       1.30649291 
Au      -1.30667059       0.00000000      -1.30649292 
Au       1.30667059       0.00000000      -1.30649291 
Au       5.83085153       0.00000000      -1.29609650 
Au      -5.83085154      -0.00000000      -1.29609650 
Au      -5.83085153      -0.00000000       1.29609650 
Au       5.83085154       0.00000000       1.29609650 
Au      -3.54095763      -0.00000000      -2.62445452 
Au       3.54095762       0.00000000      -2.62445451 
Au       3.54095763       0.00000000       2.62445452 
Au      -3.54095762      -0.00000000       2.62445451 
Au       5.77835068      -0.00000000       3.90421115 
Au      -5.77835067      -0.00000000       3.90421115 
Au      -5.77835068      -0.00000000      -3.90421115 
Au       5.77835067      -0.00000000      -3.90421115 
