20
-1551.560921
Au      -0.00000000      -1.90622894      -0.00000000 
Au       0.00000000       1.90622894       0.00000000 
Au       3.62670565       0.00000000       0.00000000 
Au      -3.62670565      -0.00000000      -0.00000000 
Au       3.59779142      -0.00000000      -5.17119132 
Au      -3.59779142      -0.00000000      -5.17119132 
Au      -3.59779142       0.00000000       5.17119132 
Au       3.59779142       0.00000000       5.17119132 
Au       3.57341137      -0.00000000      -2.59893859 
Au      -3.57341137      -0.00000000      -2.59893859 
Au      -3.57341137       0.00000000       2.59893859 
Au       3.57341137       0.00000000       2.59893859 
Au       1.29355763      -0.00000000       3.92260317 
Au      -1.29355763      -0.00000000       3.92260317 
Au      -1.29355763       0.00000000      -3.92260317 
Au       1.29355763       0.00000000      -3.92260317 
Au      -1.31234738      -0.00000000       1.29503231 
Au       1.31234738      -0.00000000       1.29503231 
Au       1.31234738       0.00000000      -1.29503231 
Au      -1.31234738       0.00000000      -1.29503231 
