20
-1550.157216
Au       0.00000000       1.89542094      -0.00000009 
Au       0.00000000      -1.89542094      -0.00000009 
Au       3.57955077       0.00000000      -0.00000004 
Au      -3.57955077      -0.00000000      -0.00000004 
Au       1.30203629       0.00000000       6.48930096 
Au      -1.30203629       0.00000000       6.48930096 
Au      -1.30203628      -0.00000000      -6.48930079 
Au       1.30203628      -0.00000000      -6.48930079 
Au       3.56968392       0.00000000      -2.58839206 
Au      -3.56968392       0.00000000      -2.58839206 
Au      -3.56968407      -0.00000000       2.58839202 
Au       3.56968407       0.00000000       2.58839202 
Au       1.32165008      -0.00000000      -3.91275082 
Au      -1.32165008      -0.00000000      -3.91275082 
Au      -1.32165001      -0.00000000       3.91275078 
Au       1.32165001       0.00000000       3.91275078 
Au       1.29509184       0.00000000      -1.32926416 
Au      -1.29509184       0.00000000      -1.32926416 
Au      -1.29509168      -0.00000000       1.32926422 
Au       1.29509168      -0.00000000       1.32926422 
