20
-1551.560926
Au      -0.00000000       1.90621415      -0.00000000 
Au      -0.00000000      -1.90621415       0.00000000 
Au      -3.62743129       0.00000000       0.00000000 
Au       3.62743129       0.00000000       0.00000000 
Au      -1.31261456      -0.00000000      -1.29492700 
Au       1.31261456      -0.00000000      -1.29492700 
Au       1.31261456       0.00000000       1.29492700 
Au      -1.31261456       0.00000000       1.29492700 
Au      -3.59699113      -0.00000000       5.17135053 
Au       3.59699113      -0.00000000       5.17135053 
Au       3.59699113       0.00000000      -5.17135053 
Au      -3.59699113      -0.00000000      -5.17135053 
Au       3.57345686       0.00000000       2.59902537 
Au      -3.57345686       0.00000000       2.59902537 
Au      -3.57345686      -0.00000000      -2.59902537 
Au       3.57345686      -0.00000000      -2.59902537 
Au      -1.29341496       0.00000000       3.92257445 
Au       1.29341496       0.00000000       3.92257445 
Au       1.29341496      -0.00000000      -3.92257445 
Au      -1.29341496      -0.00000000      -3.92257445 
