20
-1550.792158
Au       6.06714742       0.00000000      -0.00000000 
Au      -6.06714742      -0.00000000      -0.00000000 
Au      -3.51023982      -0.00000000       0.00000000 
Au       3.51023982      -0.00000000       0.00000000 
Au      -1.28580005       0.00000000       1.31471255 
Au       1.28580005      -0.00000000       1.31471255 
Au       1.28580005      -0.00000000      -1.31471255 
Au      -1.28580005      -0.00000000      -1.31471255 
Au       1.28637502      -0.00000000       3.90456552 
Au      -1.28637502      -0.00000000       3.90456552 
Au      -1.28637502      -0.00000000      -3.90456552 
Au       1.28637502      -0.00000000      -3.90456552 
Au       3.55784485       0.00000000      -2.59155635 
Au      -3.55784485      -0.00000000      -2.59155635 
Au      -3.55784485       0.00000000       2.59155635 
Au       3.55784485      -0.00000000       2.59155635 
Au       3.54419518      -0.00000000      -5.18960078 
Au      -3.54419518       0.00000000      -5.18960078 
Au      -3.54419518      -0.00000000       5.18960078 
Au       3.54419518      -0.00000000       5.18960078 
