20
-1550.650115
Au      -3.84476859      -0.00000000      -0.00000000 
Au       3.84476859       0.00000000      -0.00000000 
Au      -1.27192172       0.00000000      -0.00000000 
Au       1.27192172      -0.00000000       0.00000000 
Au       2.52274793      -0.00000000       2.24524968 
Au      -2.52274793       0.00000000       2.24524968 
Au      -2.52274793       0.00000000      -2.24524968 
Au       2.52274793      -0.00000000      -2.24524968 
Au       1.29526074      -0.00000000      -4.53678241 
Au      -1.29526074      -0.00000000      -4.53678241 
Au      -1.29526074       0.00000000       4.53678241 
Au       1.29526074       0.00000000       4.53678241 
Au      -3.88580766      -0.00000000       4.48534201 
Au       3.88580766       0.00000000       4.48534201 
Au       3.88580766      -0.00000000      -4.48534201 
Au      -3.88580766       0.00000000      -4.48534201 
Au       5.16668613       0.00000000      -2.23820757 
Au      -5.16668613      -0.00000000      -2.23820757 
Au      -5.16668613       0.00000000       2.23820757 
Au       5.16668613      -0.00000000       2.23820757 
