20
-1550.947686
Au       6.18170872      -0.00000000       0.00000000 
Au      -6.18170872      -0.00000000       0.00000000 
Au      -3.56065705       0.00000000      -0.00000000 
Au       3.56065705      -0.00000000      -0.00000000 
Au       3.55382149       0.00000000      -2.63240344 
Au      -3.55382149       0.00000000      -2.63240344 
Au      -3.55382149       0.00000000       2.63240344 
Au       3.55382149      -0.00000000       2.63240344 
Au      -1.29857309      -0.00000000       3.91728748 
Au       1.29857309      -0.00000000       3.91728748 
Au       1.29857309      -0.00000000      -3.91728748 
Au      -1.29857309       0.00000000      -3.91728748 
Au       6.13489618       0.00000000       2.57097856 
Au      -6.13489618       0.00000000       2.57097856 
Au      -6.13489618       0.00000000      -2.57097856 
Au       6.13489618       0.00000000      -2.57097856 
Au      -1.30966745       0.00000000      -1.29029461 
Au       1.30966745      -0.00000000      -1.29029461 
Au       1.30966745       0.00000000       1.29029461 
Au      -1.30966745      -0.00000000       1.29029461 
