20
-1553.033549
Au       0.00000000       0.00000000       1.29745304 
Au       0.00000000      -0.00000000      -1.29745304 
Au      -0.00000000       0.00000000       3.85815687 
Au      -0.00000000      -0.00000000      -3.85815687 
Au       0.00000000       2.27097727      -0.00000000 
Au      -0.00000000      -2.27097727      -0.00000000 
Au       2.28651853      -0.00000000       0.00000000 
Au      -2.28651853       0.00000000      -0.00000000 
Au      -0.00000000      -2.40048552       2.62683342 
Au       0.00000000       2.40048552       2.62683342 
Au      -0.00000000      -2.40048552      -2.62683342 
Au       0.00000000       2.40048552      -2.62683342 
Au       2.30428694       1.29966254       2.28263184 
Au      -2.30428694      -1.29966254       2.28263184 
Au      -2.30428694       1.29966254      -2.28263184 
Au       2.30428694      -1.29966254      -2.28263184 
Au      -2.30428694      -1.29966254      -2.28263184 
Au       2.30428694       1.29966254      -2.28263184 
Au       2.30428694      -1.29966254       2.28263184 
Au      -2.30428694       1.29966254       2.28263184 
