20
-1550.667636
Au       0.00000000      -0.00000000       3.82924337 
Au      -0.00000000      -0.00000000      -3.82924337 
Au       0.00000000      -0.00000000      -1.27433300 
Au      -0.00000000      -0.00000000       1.27433300 
Au       0.00000000      -2.23584197      -0.00000000 
Au      -0.00000000       2.23584198      -0.00000000 
Au      -2.26412436      -0.00000000      -0.00000000 
Au       2.26412436       0.00000000       0.00000000 
Au       0.00000000       4.19125595      -1.67959409 
Au      -0.00000000      -4.19125595      -1.67959409 
Au       0.00000000       4.19125595       1.67959409 
Au      -0.00000000      -4.19125595       1.67959409 
Au      -1.31588952      -1.97817118      -2.38597630 
Au       1.31588952       1.97817118      -2.38597630 
Au       1.31588952      -1.97817118       2.38597630 
Au      -1.31588952       1.97817118       2.38597630 
Au       1.31588952       1.97817118       2.38597630 
Au      -1.31588952      -1.97817118       2.38597630 
Au      -1.31588952       1.97817118      -2.38597630 
Au       1.31588952      -1.97817118      -2.38597630 
