20
-1551.065551
Au       0.00000000       0.00000000      -1.29419939 
Au       0.00000000       0.00000000       1.29419939 
Au       0.00000000       0.00000019       3.89055231 
Au       0.00000000       0.00000021      -3.89055231 
Au      -2.35521465       0.00000000      -0.00000000 
Au       2.35521465       0.00000000       0.00000000 
Au      -4.96014567       0.00000000       0.00000000 
Au       4.96014567       0.00000000       0.00000000 
Au      -0.00000000      -2.56714411      -3.55600321 
Au      -0.00000000       2.56714388      -3.55600320 
Au      -0.00000000      -2.56714410       3.55600321 
Au      -0.00000000       2.56714389       3.55600320 
Au       1.97681467       1.29491151      -2.42209330 
Au      -1.97681471      -1.29491150      -2.42209328 
Au      -1.97681467       1.29491151       2.42209330 
Au       1.97681471      -1.29491150       2.42209328 
Au      -1.97681471      -1.29491150       2.42209328 
Au       1.97681467       1.29491151       2.42209330 
Au       1.97681471      -1.29491150      -2.42209328 
Au      -1.97681467       1.29491151      -2.42209330 
