20
-1546.204157
Au      -0.00000000       0.00000000      -3.88926462 
Au      -0.00000000      -0.00000000       3.88926462 
Au      -0.00000000       0.00000000      -1.28609259 
Au      -0.00000000       0.00000000       1.28609259 
Au       2.22603735       0.00000000       0.00000000 
Au      -2.22603735      -0.00000000      -0.00000000 
Au      -4.82839080      -0.00000000      -0.00000000 
Au       4.82839080       0.00000000      -0.00000000 
Au       0.00000000       2.25833256       2.63854874 
Au       0.00000000      -2.25833256       2.63854874 
Au       0.00000000       2.25833256      -2.63854874 
Au       0.00000000      -2.25833256      -2.63854874 
Au      -3.53036746      -1.83339106       1.31709723 
Au       3.53036746       1.83339106       1.31709723 
Au       3.53036746      -1.83339106      -1.31709723 
Au      -3.53036746       1.83339106      -1.31709723 
Au       3.53036746       1.83339106      -1.31709723 
Au      -3.53036746      -1.83339106      -1.31709723 
Au      -3.53036746       1.83339106       1.31709723 
Au       3.53036746      -1.83339106       1.31709723 
