20
-1546.781008
Au       0.00000000      -0.00000000       4.58889695 
Au      -0.00000000      -0.00000000      -4.58889695 
Au      -0.00000000      -0.00000000       1.99456223 
Au       0.00000000       0.00000000      -1.99456223 
Au      -1.28101743      -1.28101743      -0.00000000 
Au       1.28101743       1.28101743       0.00000000 
Au       1.28101743      -1.28101743      -0.00000000 
Au      -1.28101743       1.28101743       0.00000000 
Au      -3.08306558      -3.08306558       0.00000000 
Au       3.08306558       3.08306558      -0.00000000 
Au       3.08306558      -3.08306558       0.00000000 
Au      -3.08306558       3.08306558      -0.00000000 
Au       1.90539414       1.90539414       2.42136988 
Au      -1.90539414      -1.90539414       2.42136988 
Au      -1.90539414       1.90539414       2.42136988 
Au       1.90539414      -1.90539414       2.42136988 
Au      -1.90539414       1.90539414      -2.42136988 
Au       1.90539414      -1.90539414      -2.42136988 
Au       1.90539414       1.90539414      -2.42136988 
Au      -1.90539414      -1.90539414      -2.42136988 
