20
-1551.687259
Au      -0.00000000       0.00000000       1.62516269 
Au      -0.00000000       0.00000000      -1.62516269 
Au      -0.00000000       2.06171223       0.00000000 
Au       0.00000000      -2.06171223      -0.00000000 
Au      -0.00000000      -5.87167000      -0.00000000 
Au       0.00000000       5.87167000       0.00000000 
Au      -2.05046484      -0.00000000       0.00000000 
Au       2.05046484      -0.00000000      -0.00000000 
Au       0.00000000      -2.34359171       2.76157642 
Au      -0.00000000       2.34359171       2.76157642 
Au       0.00000000      -2.34359171      -2.76157642 
Au      -0.00000000       2.34359171      -2.76157642 
Au       1.33060204      -4.02743260       1.30168858 
Au      -1.33060204       4.02743260       1.30168858 
Au      -1.33060204      -4.02743260      -1.30168858 
Au       1.33060204       4.02743260      -1.30168858 
Au      -1.33060204       4.02743260      -1.30168858 
Au       1.33060204      -4.02743260      -1.30168858 
Au       1.33060204       4.02743260       1.30168858 
Au      -1.33060204      -4.02743260       1.30168858 
