20
-1552.82384
Au      -0.00000000       0.00000150      -2.44457780 
Au       0.00000000      -0.00000048       2.44457780 
Au      -0.00000000       5.13938044      -0.00000001 
Au      -0.00000000      -5.13938045       0.00000001 
Au      -0.00000000      -2.50959881       0.00000037 
Au      -0.00000000       2.50959881      -0.00000032 
Au       3.74112817      -0.00000004      -0.00000000 
Au      -3.74112817      -0.00000004      -0.00000000 
Au      -0.00000000      -2.58977910      -2.60277239 
Au      -0.00000000       2.58977760      -2.60277178 
Au       0.00000000      -2.58977810       2.60277188 
Au       0.00000000       2.58977859       2.60277225 
Au       2.01180213       1.38299014      -1.37864914 
Au      -2.01180250      -1.38299008      -1.37864894 
Au      -2.01180238       1.38299010       1.37864902 
Au       2.01180224      -1.38299013       1.37864907 
Au      -2.01180224      -1.38299013       1.37864907 
Au       2.01180238       1.38299010       1.37864902 
Au       2.01180250      -1.38299008      -1.37864894 
Au      -2.01180213       1.38299014      -1.37864914 
