20
-1551.957722
Au       0.00000000      -0.00000000       4.14409921 
Au      -0.00000000      -0.00000000      -4.14409921 
Au      -0.00000000      -2.33511722       0.00000000 
Au       0.00000000       2.33511721       0.00000000 
Au      -3.90804937       0.00000000       0.00000000 
Au       3.90804938       0.00000000       0.00000000 
Au       1.32217822       0.00000000       0.00000000 
Au      -1.32217822       0.00000000       0.00000000 
Au      -0.00000000       3.58076434      -2.29454938 
Au      -0.00000000      -3.58076434      -2.29454938 
Au      -0.00000000       3.58076433       2.29454937 
Au       0.00000000      -3.58076433       2.29454937 
Au       1.31275063      -1.32354676      -2.27383836 
Au      -1.31275063       1.32354676      -2.27383836 
Au      -1.31275063      -1.32354676       2.27383836 
Au       1.31275063       1.32354676       2.27383836 
Au      -1.31275063       1.32354676       2.27383836 
Au       1.31275063      -1.32354676       2.27383836 
Au       1.31275063       1.32354676      -2.27383836 
Au      -1.31275063      -1.32354676      -2.27383836 
