20
-1553.446441
Au      -0.00000034       0.00000026       1.71384920 
Au      -0.00000025       0.00000062      -2.82416826 
Au      -0.03894643      -1.36448037      -0.49869633 
Au       0.03894566       1.36447971      -0.49869463 
Au       4.36076682      -0.04679957      -1.27414237 
Au      -4.36076712       0.04679964      -1.27414248 
Au      -2.24818701       0.01790745       0.25126915 
Au       2.24818767      -0.01790752       0.25126922 
Au      -0.02134224      -1.31484614       4.00693671 
Au       0.02134232       1.31484592       4.00693629 
Au      -0.03614967      -2.59523628      -2.79125637 
Au       0.03614965       2.59523594      -2.79125692 
Au      -2.17330887       1.20350739       2.59823023 
Au       2.17330946      -1.20350748       2.59823118 
Au       2.25080719       1.32190505      -2.10701692 
Au      -2.25080709      -1.32190492      -2.10701670 
Au       2.19272744      -1.35889393      -2.06811628 
Au      -2.19272739       1.35889387      -2.06811636 
Au      -2.10333568      -1.43144076       2.43795065 
Au       2.10333586       1.43144110       2.43795099 
