20
-1551.699199
Au       0.00000000       0.00000000       1.90442434 
Au       0.00000000       0.00000000      -1.90442434 
Au       0.00000001      -1.80080184       0.00000000 
Au      -0.00000001       1.80080184      -0.00000000 
Au      -2.03868784       0.00000005       0.00000000 
Au       2.03868784      -0.00000003      -0.00000000 
Au      -4.65632100      -0.00000000       0.00000000 
Au       4.65632100       0.00000000      -0.00000000 
Au      -0.00000000      -2.53894914      -2.58536229 
Au       0.00000000       2.53894914      -2.58536229 
Au      -0.00000000      -2.53894914       2.58536229 
Au       0.00000000       2.53894914       2.58536229 
Au       2.25854955       2.23737065      -1.32850402 
Au      -2.25854955      -2.23737066      -1.32850402 
Au      -2.25854955       2.23737063       1.32850400 
Au       2.25854955      -2.23737064       1.32850400 
Au      -2.25854955      -2.23737066       1.32850402 
Au       2.25854955       2.23737065       1.32850402 
Au       2.25854955      -2.23737064      -1.32850400 
Au      -2.25854955       2.23737063      -1.32850400 
