20
-1551.560923
Au      -0.00000000      -0.00000000       3.62695563 
Au       0.00000000      -0.00000000      -3.62695563 
Au       1.90626502       0.00000000       0.00000000 
Au      -1.90626502       0.00000000      -0.00000000 
Au      -0.00000000      -2.59898374      -3.57341954 
Au       0.00000000       2.59898374      -3.57341954 
Au      -0.00000000      -2.59898374       3.57341954 
Au      -0.00000000       2.59898374       3.57341954 
Au      -0.00000000       5.17138961      -3.59701805 
Au       0.00000000      -5.17138961      -3.59701805 
Au       0.00000000       5.17138961       3.59701805 
Au       0.00000000      -5.17138961       3.59701805 
Au      -0.00000000      -3.92225139       1.29339725 
Au       0.00000000       3.92225139       1.29339725 
Au       0.00000000      -3.92225139      -1.29339725 
Au       0.00000000       3.92225139      -1.29339725 
Au      -0.00000000      -1.29499327       1.31244537 
Au       0.00000000       1.29499327       1.31244537 
Au       0.00000000      -1.29499327      -1.31244537 
Au       0.00000000       1.29499327      -1.31244537 
