20
-1547.232654
Au      -1.72710820      -1.87730667      -1.88312057 
Au       1.85473025       1.84554741      -1.84487660 
Au       1.82428954      -1.86566763       1.86572792 
Au      -1.72910463       1.88053613       1.87794293 
Au      -3.29323991      -3.33737495      -3.29590086 
Au       3.19300387       3.38580677      -3.39096492 
Au       3.21055938      -3.38471996       3.38844121 
Au      -3.29094755       3.29400639       3.34197118 
Au      -1.87573338       0.00076660      -0.00120519 
Au       1.93574174      -0.01029449       0.01113758 
Au       0.03974161      -1.83549145       0.00559507 
Au       0.05053179       1.83092882       0.00025106 
Au       0.05080276       0.00095108      -1.82929260 
Au       0.03901846      -0.00636958       1.83477854 
Au       4.50229510       0.04936114      -0.05171023 
Au      -4.45423156       0.03213004      -0.03486909 
Au      -0.06598901       4.36564546       0.27560333 
Au      -0.09942776      -4.36808192      -0.27299617 
Au      -0.09802380       0.27559858       4.36704398 
Au      -0.06690868      -0.27597177      -4.36355658 
