20
-1544.889726
Au       1.83761520       1.83761522       1.83761522 
Au      -1.83761524      -1.83761523       1.83761524 
Au      -1.83761522       1.83761521      -1.83761519 
Au       1.83761517      -1.83761518      -1.83761517 
Au      -1.83769995      -1.83769995      -1.83769995 
Au       1.83769996       1.83769996      -1.83769996 
Au       1.83769995      -1.83769995       1.83769995 
Au      -1.83769994       1.83769994       1.83769994 
Au       1.96485345      -0.00000004      -0.00000003 
Au      -1.96485345       0.00000003      -0.00000001 
Au      -0.00000002       1.96485345       0.00000000 
Au       0.00000005      -1.96485345      -0.00000005 
Au       0.00000001       0.00000002       1.96485345 
Au       0.00000002      -0.00000003      -1.96485345 
Au      -4.67138603       0.00000000       0.00000000 
Au       4.67138603      -0.00000000      -0.00000000 
Au       0.00000000      -4.67138603      -0.00000000 
Au      -0.00000000       4.67138603       0.00000000 
Au       0.00000000      -0.00000000      -4.67138603 
Au       0.00000000       0.00000000       4.67138603 
