20
-1547.176484
Au       1.79517151       1.85964322       1.86021259 
Au      -1.79517151      -1.85964322       1.86021259 
Au      -1.79517151       1.85964322      -1.86021259 
Au       1.79517151      -1.85964322      -1.86021259 
Au       3.24204388       3.35432787       3.35519096 
Au      -3.24204388      -3.35432787       3.35519096 
Au      -3.24204388       3.35432787      -3.35519096 
Au       3.24204388      -3.35432787      -3.35519096 
Au       1.90519528      -0.00000000      -0.00000000 
Au      -1.90519528       0.00000000       0.00000000 
Au       0.00000000       1.83643738       0.00000000 
Au       0.00000000      -1.83643738      -0.00000000 
Au      -0.00000000       0.00000000       1.83512249 
Au       0.00000000       0.00000000      -1.83512249 
Au       4.47875705      -0.00000000       0.00000000 
Au      -4.47875705      -0.00000000       0.00000000 
Au      -0.00000000       4.39243970      -0.00000000 
Au       0.00000000      -4.39243970       0.00000000 
Au      -0.00000000       0.00000000       4.39093116 
Au      -0.00000000       0.00000000      -4.39093116 
