20
-1546.951625
Au      -0.00000000       0.00000000       3.86662682 
Au       0.00000000       0.00000000      -3.86662682 
Au      -0.00000000      -0.00000000       1.28805752 
Au       0.00000000      -0.00000000      -1.28805752 
Au      -5.31674725       0.00000000      -0.00000000 
Au       5.31674725       0.00000000       0.00000000 
Au       0.00000000      -5.31674725      -0.00000000 
Au      -0.00000000       5.31674725       0.00000000 
Au       3.75970431       3.75970431       0.00000000 
Au      -3.75970431      -3.75970431       0.00000000 
Au      -3.75970431       3.75970431       0.00000000 
Au       3.75970431      -3.75970431       0.00000000 
Au      -3.08009711       1.27589099      -0.00000000 
Au       3.08009711      -1.27589099      -0.00000000 
Au      -1.27589099      -3.08009711       0.00000000 
Au       1.27589099       3.08009711       0.00000000 
Au       3.08009711       1.27589099       0.00000000 
Au      -3.08009711      -1.27589099      -0.00000000 
Au       1.27589099      -3.08009711      -0.00000000 
Au      -1.27589099       3.08009711      -0.00000000 
