20
-1551.418183
Au      -1.61195095      -1.61195095      -1.61195095 
Au       1.61195095       1.61195095      -1.61195095 
Au       1.61195095      -1.61195095       1.61195095 
Au      -1.61195095       1.61195095       1.61195095 
Au       0.90204823       0.90204823       0.90204823 
Au      -0.90204823      -0.90204823       0.90204823 
Au      -0.90204823       0.90204823      -0.90204823 
Au       0.90204823      -0.90204823      -0.90204823 
Au      -2.71370808      -2.71370808       0.77277684 
Au       2.71370808       2.71370808       0.77277684 
Au       2.71370808      -2.71370808      -0.77277684 
Au      -2.71370808       2.71370808      -0.77277684 
Au       0.77277684      -2.71370808      -2.71370808 
Au       0.77277684       2.71370808       2.71370808 
Au      -0.77277684       2.71370808      -2.71370808 
Au      -0.77277684      -2.71370808       2.71370808 
Au      -2.71370808       0.77277684      -2.71370808 
Au       2.71370808       0.77277684       2.71370808 
Au      -2.71370808      -0.77277684       2.71370808 
Au       2.71370808      -0.77277684      -2.71370808 
