20
-1551.605064
Au      -2.59196978      -2.59196978      -2.59196978 
Au       2.59196978       2.59196978      -2.59196978 
Au       2.59196978      -2.59196978       2.59196978 
Au      -2.59196978       2.59196978       2.59196978 
Au      -0.95884713      -0.95884713      -0.95884713 
Au       0.95884713       0.95884713      -0.95884713 
Au       0.95884713      -0.95884713       0.95884713 
Au      -0.95884713       0.95884713       0.95884713 
Au      -0.91105233      -0.91105233      -3.59659001 
Au       0.91105233       0.91105233      -3.59659001 
Au       0.91105233      -0.91105233       3.59659001 
Au      -0.91105233       0.91105233       3.59659001 
Au      -3.59659001      -0.91105233      -0.91105233 
Au      -3.59659001       0.91105233       0.91105233 
Au       3.59659001       0.91105233      -0.91105233 
Au       3.59659001      -0.91105233       0.91105233 
Au      -0.91105233      -3.59659001      -0.91105233 
Au       0.91105233      -3.59659001       0.91105233 
Au      -0.91105233       3.59659001       0.91105233 
Au       0.91105233       3.59659001      -0.91105233 
