20
-1538.870624
Au       0.00000000       0.00000000      -1.26530644 
Au      -0.00000000      -0.00000000       1.26530644 
Au      -1.40834602      -4.84564481       0.00000000 
Au       4.89861279       1.20319998       0.00000000 
Au      -3.49118536       3.64143293       0.00000000 
Au       1.40834602       4.84564481      -0.00000000 
Au      -4.89861279      -1.20319998       0.00000000 
Au       3.49118536      -3.64143293       0.00000000 
Au       0.96813798      -3.94556921      -0.00000000 
Au       2.92887413       2.80922068      -0.00000000 
Au      -3.89592389       1.13231847      -0.00000000 
Au      -0.96813798       3.94556921      -0.00000000 
Au      -2.92887413      -2.80922068      -0.00000000 
Au       3.89592389      -1.13231847       0.00000000 
Au       2.11469719       7.28859105       0.00000000 
Au      -7.36619151      -1.81813740      -0.00000000 
Au       5.24715745      -5.48080287      -0.00000000 
Au      -2.11469719      -7.28859105       0.00000000 
Au       7.36619151       1.81813740      -0.00000000 
Au      -5.24715745       5.48080287      -0.00000000 
