20
-1555.676483
Au       0.00000000      -0.00000000       1.33105529 
Au      -0.00000000       0.00000000      -1.33105529 
Au       2.66979323       0.13312082       0.00000000 
Au      -1.35117120       2.11340660       0.00000000 
Au      -1.24077507      -2.34875577       0.00000000 
Au      -2.66979323      -0.13312082      -0.00000000 
Au       1.35117120      -2.11340660      -0.00000000 
Au       1.24077507       2.34875577      -0.00000000 
Au       2.31370034      -1.20249030       2.30202830 
Au      -0.11605850       2.60193494       2.30412036 
Au      -2.16188832      -1.37779713       2.28821411 
Au      -2.31370034       1.20249030       2.30202830 
Au       0.11605850      -2.60193494       2.30412036 
Au       2.16188832       1.37779713       2.28821411 
Au      -2.31370034       1.20249030      -2.30202830 
Au       0.11605850      -2.60193494      -2.30412036 
Au       2.16188832       1.37779713      -2.28821411 
Au       2.31370034      -1.20249030      -2.30202830 
Au      -0.11605850       2.60193494      -2.30412036 
Au      -2.16188832      -1.37779713      -2.28821411 
