20
-1549.316976
Au      -0.00000000      -0.00000000       1.27757346 
Au       0.00000000      -0.00000000      -1.27757346 
Au       0.00891953      -2.58202082       0.00000000 
Au       2.23163590       1.29873489       0.00000000 
Au      -2.24055532       1.28328596      -0.00000000 
Au      -0.00891953       2.58202082      -0.00000000 
Au      -2.23163590      -1.29873489       0.00000000 
Au       2.24055532      -1.28328596      -0.00000000 
Au       2.06413136      -3.54682823      -1.30956051 
Au       2.03957768       3.56100432      -1.30956053 
Au      -4.10370904      -0.01417608      -1.30956053 
Au      -2.06413136       3.54682823      -1.30956051 
Au      -2.03957768      -3.56100432      -1.30956053 
Au       4.10370904       0.01417608      -1.30956053 
Au      -2.06413136       3.54682823       1.30956051 
Au      -2.03957768      -3.56100432       1.30956053 
Au       4.10370904       0.01417608       1.30956053 
Au       2.06413136      -3.54682823       1.30956051 
Au       2.03957768       3.56100432       1.30956053 
Au      -4.10370904      -0.01417608       1.30956053 
