20
-1552.752956
Au      -0.15185805      -0.00000000       4.57131197 
Au      -1.44436446       0.00000000       2.28446982 
Au      -4.97968521      -0.00000000      -4.05042535 
Au       5.03607748       0.00000000       4.52874030 
Au       2.24532010      -0.00000000      -4.54509313 
Au      -2.77788459      -0.00000000       4.53757972 
Au       2.43470222      -0.00000000       0.04281502 
Au      -0.16071680      -0.00000000       0.04389084 
Au      -2.54946830      -0.00000000      -2.73985956 
Au       3.82984374      -0.00000000       2.23179178 
Au      -0.37109479       0.00000000      -4.39497741 
Au       1.13183286       0.00000000       2.27759937 
Au       5.03387586      -0.00000000      -0.11694756 
Au      -4.89008577      -0.00000000      -1.46962602 
Au      -2.76430079       0.00000000      -5.37594741 
Au       2.44947659       0.00000000       4.50601323 
Au       1.05053314      -0.00000000      -2.22047844 
Au      -2.74369524       0.00000000      -0.03102429 
Au      -4.03444496      -0.00000000       2.24470589 
Au       3.65593700       0.00000000      -2.32453877 
