20
-1552.63572
Au       0.07689784      -0.00000000       3.44659572 
Au      -0.04771290      -0.00000000       0.78459791 
Au      -2.21768252      -0.00000000       2.23006153 
Au       2.01950406       0.00000000      -3.31602534 
Au       2.41171841      -0.00000000       4.55879070 
Au      -2.53039201       0.00000000      -3.02807418 
Au      -2.39069589       0.00000000      -0.36966598 
Au       2.17368460       0.00000000      -0.62345142 
Au      -0.15168707       0.00000000      -1.86256815 
Au       2.34865155      -0.00000000       1.97264763 
Au       4.53250467      -0.00000000       0.53709278 
Au      -4.69767922       0.00000000      -1.58475099 
Au      -2.12705971      -0.00000000       4.86665174 
Au      -0.35360506       0.00000000      -4.45976713 
Au       4.37409885      -0.00000000      -2.04201000 
Au      -4.62272486       0.00000000       1.04121989 
Au      -4.41802497      -0.00000000       3.63886302 
Au       4.26672909      -0.00000000      -4.61775108 
Au       0.67673758      -2.15675611      -0.58622832 
Au       0.67673758       2.15675611      -0.58622832 
