20
-1552.882456
Au      -0.12581348      -0.00000000      -0.48441099 
Au      -0.38698449      -0.00000000       2.13513092 
Au       2.47640786      -0.00000000      -4.20536950 
Au      -2.79380775       0.00000000       3.22537131 
Au      -4.40675119       0.00000000      -3.52510830 
Au       4.15268565      -0.00000000       2.58037730 
Au       0.10863022       0.00000000      -3.06913909 
Au      -0.69914732       0.00000000       4.73219192 
Au      -2.56944602       0.00000000       0.63366177 
Au       2.31377180      -0.00000000      -1.59909800 
Au       1.77990103      -0.00000000       3.66647048 
Au      -2.03873742       0.00000000      -4.61514952 
Au       0.33872277      -0.00000000      -5.67609930 
Au       1.38795593      -0.00000000       6.23983590 
Au       1.98554531      -0.00000000       1.05251415 
Au      -2.25391608       0.00000000      -1.99395182 
Au       4.38246632      -0.00000000      -0.00825066 
Au      -4.64690917       0.00000000      -0.93947540 
Au       0.49771301      -2.16273988       0.92524940 
Au       0.49771301       2.16273988       0.92524940 
