20
-1552.022128
Au      -1.42881825      -0.00000001      -4.27723838 
Au       1.42989405       0.00000000       4.27740284 
Au       2.95697847      -0.00000002      -3.43706096 
Au      -2.95834409       0.00000002       3.43734856 
Au      -2.42871567      -0.00000005       0.85174158 
Au       2.42890620       0.00000005      -0.85085929 
Au       0.50723524      -0.00000000      -2.54676596 
Au      -0.50775098       0.00000000       2.54863171 
Au      -6.92802662       0.00000001       0.16163298 
Au       6.92772853      -0.00000001      -0.16292354 
Au       4.89913062      -0.00000000      -1.74138315 
Au      -4.89946098       0.00000000       1.74040466 
Au      -4.50818050      -0.00000003      -0.84208696 
Au       4.50824628       0.00000003       0.84148281 
Au      -1.90730443      -0.00000015      -1.65710694 
Au       1.90682709       0.00000015       1.65798021 
Au       3.86091291      -0.00000008       3.36000462 
Au      -3.86006626       0.00000008      -3.36032804 
Au       0.00040430       1.28151540      -0.00043832 
Au       0.00040408      -1.28151540      -0.00043843 
