20
-1548.205568
Au      -0.72730262       0.00000000      -1.52782129 
Au      -0.48008217      -0.00000000       3.65123726 
Au      -5.09511958       0.00000000      -4.29396710 
Au       4.72634925       0.00000000       3.81350969 
Au      -2.81144949       0.00000000      -5.48758368 
Au       3.35714875      -0.00000000       6.00912702 
Au       1.57208439      -0.00000000      -2.74375185 
Au      -2.84392856       0.00000000       2.53980356 
Au      -0.62917246      -0.00000000      -4.12270053 
Au       2.11008271      -0.00000000       3.72121606 
Au       1.63919686      -0.00000000      -5.31243080 
Au      -2.69781137      -0.00000000       5.10422535 
Au      -0.75199471      -0.00000000       1.04051746 
Au       1.57253368       0.00000000      -0.16314736 
Au      -2.90567315       0.00000000      -2.88442433 
Au       3.55190848      -0.00000000       1.50793198 
Au       0.12661451      -4.70369977      -0.16878956 
Au       0.12661451       4.70369977      -0.16878956 
Au       0.08000050      -2.14210338      -0.25708116 
Au       0.08000050       2.14210338      -0.25708116 
