20
-1551.163853
Au      -0.86120976      -0.41810457      -4.30316890 
Au       0.27389239       0.49626547       3.40945608 
Au       2.46855091      -0.30441348       4.50357945 
Au      -3.13192594       0.39848309      -5.35603944 
Au       3.15719041      -2.28237830      -4.67932967 
Au      -3.07969500       2.61637681       6.67200000 
Au       1.33743235      -1.19438881      -3.19829174 
Au      -1.56106010       1.59456132       4.86367968 
Au      -1.35258032      -0.68077312      -6.85040104 
Au       3.00755976      -0.09690390       7.03249383 
Au      -0.47772738      -0.10457154      -1.72754242 
Au      -0.08677525       0.19291256       0.82573140 
Au       2.11083124      -0.59895357       1.95484632 
Au      -2.70594707       0.69828516      -2.78168069 
Au      -4.91756484       1.47460692      -3.86099214 
Au       4.73977935      -1.18044072       5.35504032 
Au      -2.31690628       1.00237887      -0.24690798 
Au       1.77289643      -0.91311717      -0.60890758 
Au      -1.94309156       1.30338989       2.30639656 
Au       3.56635068      -2.00321491      -2.12815618 
