20
-1551.389033
Au      -0.17212032       0.00000000      -0.82588644 
Au       1.20025372      -0.00000000       4.11765120 
Au      -0.21768713       0.00000000       1.88228276 
Au      -0.20270741      -0.00000000      -3.48442891 
Au      -2.50321304       0.00000000       3.22030722 
Au       2.39815268       0.00000000      -3.45806920 
Au       4.75182692      -0.00000000       0.38496104 
Au      -4.78498816      -0.00000000      -0.77482101 
Au      -4.72271688      -0.00000000       1.84516060 
Au       4.69933634      -0.00000000      -2.21717069 
Au       2.44570722       0.00000000      -0.84698095 
Au      -2.47114305       0.00000000       0.54026663 
Au       2.46854531      -0.00000000       1.82692750 
Au      -2.42248935      -0.00000000      -2.08836986 
Au       4.83260045      -0.00000000       2.97108434 
Au      -4.65582099      -0.00000000      -3.38449263 
Au       1.07011806      -1.87122522       0.49943971 
Au       1.07011806       1.87122522       0.49943971 
Au      -1.39188622      -2.23276683      -0.35365051 
Au      -1.39188622       2.23276683      -0.35365051 
