20
-1552.099703
Au       0.24972182       0.00000003      -4.92048966 
Au      -0.01985239      -0.00000005       0.24397066 
Au       2.29387458      -0.00000001      -0.95676145 
Au      -2.32678415       0.00000000       1.43402671 
Au       2.06848410       0.00000001       4.25569593 
Au      -2.08781743       0.00000000      -3.78380047 
Au      -2.27978224      -0.00000000      -1.18910956 
Au       2.22015299       0.00000002       1.67173870 
Au       2.48612616      -0.00000001      -3.59353153 
Au      -2.49604125       0.00000004       4.02958178 
Au      -0.15006729       0.00000001       2.88931967 
Au       0.11084541       0.00000004      -2.33147942 
Au      -4.68763884      -0.00000001       2.64355604 
Au       4.65312618      -0.00000001      -2.15598408 
Au      -4.56747653      -0.00000001       0.05360314 
Au       4.52034947       0.00000001       0.43984527 
Au      -0.73228354      -2.20048535       1.46442397 
Au       0.73867324      -2.24348079      -0.82951482 
Au       0.73867324       2.24348078      -0.82951475 
Au      -0.73228351       2.20048529       1.46442386 
