20
-1551.606078
Au      -4.76001221       0.00000000      -3.20591490 
Au       4.76001221      -0.00000000       3.20591490 
Au      -4.77704172       0.00000000       4.30191074 
Au       4.77704172       0.00000000      -4.30191074 
Au      -1.36287169      -0.00000000      -0.19402575 
Au       1.36287169       0.00000000       0.19402575 
Au      -0.28168895       0.00000000      -4.66028009 
Au       0.28168895       0.00000000       4.66028009 
Au      -3.94900054      -0.00000000       1.81867478 
Au       3.94900054       0.00000000      -1.81867478 
Au      -3.86441486      -0.00000000      -0.79057767 
Au       3.86441486       0.00000000       0.79057767 
Au      -2.17988515       0.00000000      -2.80983458 
Au       2.17988515       0.00000000       2.80983458 
Au       0.31731269      -0.00000000      -2.15021315 
Au      -0.31731269      -0.00000000       2.15021315 
Au      -6.17149511      -0.00000000       0.34057506 
Au       6.17149511      -0.00000000      -0.34057506 
Au       2.23368024      -0.00000000      -3.86649826 
Au      -2.23368024       0.00000000       3.86649826 
