20
-1552.234793
Au       0.20349722      -0.00000008      -1.25179131 
Au       0.22043224      -0.00000436       1.45319261 
Au       2.53401514      -0.00000002       2.68773785 
Au      -2.12042942      -0.00000002      -2.62105750 
Au       4.67935811       0.00000005       4.16049143 
Au      -4.24735223       0.00000002      -4.15465743 
Au       0.30587164      -0.00000000      -3.86989425 
Au       0.08685854      -0.00000352       4.06953290 
Au       2.54261525       0.00000001      -2.53538117 
Au      -2.12811595      -0.00000001       2.66167681 
Au       2.50955743       0.00000004       0.06237155 
Au      -2.11762486      -0.00000013       0.04546967 
Au       2.35127271       0.00000002       5.31236624 
Au      -1.88637001      -0.00000001      -5.23715796 
Au      -0.58415479      -2.18451306       0.26707657 
Au      -0.58416628       2.18451547       0.26706902 
Au      -2.63263620      -2.20838136      -1.30592291 
Au       1.74999651      -2.16305745       1.41090053 
Au       1.75000719       2.16306278       1.41089933 
Au      -2.63263223       2.20838163      -1.30592000 
