20
-1552.621306
Au       1.51383553      -0.00000001       5.24252079 
Au      -0.15747159       0.00001718       3.20028087 
Au       2.45835648       0.00000080       2.82659973 
Au      -2.19264186       0.00000008      -3.52021070 
Au      -3.30237152      -0.00000001      -1.15162864 
Au       3.57121683       0.00000053       0.47554732 
Au       0.89348239       0.00000738       0.71384724 
Au      -0.65773386       0.00000012      -1.38250793 
Au      -4.31278422       0.00000001       1.27092106 
Au       3.00401934       0.00000002      -4.02117239 
Au      -2.79484871      -0.00000006       3.38598924 
Au       0.41319782       0.00000000      -3.78083672 
Au       2.01155871      -0.00000012      -1.62860537 
Au      -1.69501902      -0.00000003       1.01001323 
Au       0.24298759       2.28376380      -0.47404422 
Au       0.24298576      -2.28376504      -0.47404614 
Au       2.25899330      -2.16752688       1.20094437 
Au      -1.87836611      -2.19180344      -2.04728484 
Au      -1.87836611       2.19180325      -2.04728495 
Au       2.25896924       2.16750241       1.20095805 
