20
-1552.51333
Au       1.37468381      -0.00002429      -1.31587371 
Au      -1.70797004       0.00000141       2.21876221 
Au      -2.33293543       0.00001654      -3.15714015 
Au       2.82363084      -0.00002271       3.04971478 
Au      -1.47545211      -0.00000187      -5.61375407 
Au       2.28256201      -0.00000487       5.57407229 
Au       3.27536409       0.00000809       0.48989506 
Au      -4.17440582      -0.00000051       1.40876808 
Au       0.28868235      -0.00000355       3.92078846 
Au       0.31776023      -0.00000848      -3.71799240 
Au      -2.34951589       0.00000606      -0.50391221 
Au       0.81363329       0.00000949       1.35141808 
Au       0.11243921      -3.84674469      -0.80169195 
Au       0.11240599       3.84676669      -0.80168697 
Au      -0.83091015       1.90746195       0.65019077 
Au      -0.83089965      -1.90744802       0.65018216 
Au      -0.71298687      -1.66562733      -1.95741398 
Au       1.86344221      -2.19937927       0.25656613 
Au       1.86342159       2.19937690       0.25650878 
Au      -0.71294967       1.66561845      -1.95740139 
