20
-1552.37017
Au       0.54632047       0.21097935      -3.05599516 
Au      -2.33974122      -0.17603985       0.20454541 
Au       3.17885327       0.60279861      -2.84297418 
Au      -4.64168258       0.01035487       4.05780913 
Au      -4.67827608       0.04761996       1.44776605 
Au       4.04104024      -0.66398625      -0.66569441 
Au       2.21287183      -1.08320698      -4.61267385 
Au      -2.45307034      -0.52038246       5.39068807 
Au       6.48661069      -1.35327292      -0.25529723 
Au      -6.18955482      -0.10461916      -0.66434790 
Au      -2.36336281      -0.17175260       2.82561770 
Au       1.71296367       0.53211277      -0.55102055 
Au       0.92698736       2.95587379       0.26165976 
Au       1.96576872      -1.84208669       0.48979705 
Au      -0.70885221       1.42423326      -1.10889742 
Au      -0.24321096      -1.23367122      -0.98320890 
Au       2.08992141      -1.71106161      -2.10612892 
Au      -0.21801451      -0.99910254       1.62003413 
Au      -0.83305932       1.55217109       1.54738174 
Au       1.50748719       2.52303857      -2.23406261 
