20
-1553.109806
Au       1.34617242      -0.00000004       1.32178880 
Au       0.52988597      -0.00000004       3.80623414 
Au      -3.79860091       0.00000001       2.48810314 
Au       3.81240975       0.00000000      -2.51479852 
Au       1.54636471       0.00000001      -3.84476736 
Au      -2.01815808      -0.00000098       4.40611686 
Au       3.71994194      -0.00000001       0.12062346 
Au      -3.40860143      -0.00000004      -2.59531978 
Au       1.50465045       0.00000002      -1.25938798 
Au      -3.02340900      -0.00000001      -0.03082496 
Au      -1.26346159      -0.00000017       1.91543466 
Au      -0.79435110      -0.00000000      -2.62783744 
Au      -0.67606682      -1.30543931      -0.28201363 
Au      -0.67606672       1.30543941      -0.28201361 
Au       0.79083042      -3.43668597      -0.07502153 
Au       0.79083032       3.43668586      -0.07502144 
Au       0.17359997      -2.19460429       2.18707365 
Au       0.63521431      -2.21899998      -2.42272048 
Au       0.63521427       2.21899999      -2.42272050 
Au       0.17360111       2.19460552       2.18707251 
