20
-1542.676778
Au       0.00000000       0.00000000       1.28796623 
Au      -0.00000000      -0.00000000      -1.28796623 
Au      -0.00000000       0.00000000       3.85104238 
Au       0.00000000       0.00000000      -3.85104238 
Au      -5.56030467      -5.56030467       0.00000000 
Au       5.56030467       5.56030467       0.00000000 
Au       5.56030467      -5.56030467       0.00000000 
Au      -5.56030467       5.56030467      -0.00000000 
Au       3.75506387       3.75506387      -0.00000000 
Au      -3.75506387      -3.75506387       0.00000000 
Au      -3.75506387       3.75506387       0.00000000 
Au       3.75506387      -3.75506387       0.00000000 
Au       1.27020179       3.07001319      -0.00000000 
Au      -1.27020179      -3.07001319      -0.00000000 
Au      -3.07001319       1.27020179       0.00000000 
Au       3.07001319      -1.27020179       0.00000000 
Au      -1.27020179       3.07001319      -0.00000000 
Au       1.27020179      -3.07001319       0.00000000 
Au       3.07001319       1.27020179      -0.00000000 
Au      -3.07001319      -1.27020179      -0.00000000 
