20
-1552.777499
Au       1.87589731      -0.00000000       2.92255752 
Au      -1.87589731       0.00000000      -2.92255752 
Au       3.20417639      -0.00000000      -1.42974407 
Au      -3.20417639       0.00000000       1.42974407 
Au      -2.51532070       0.00000000      -5.47002524 
Au       2.51532070       0.00000000       5.47002524 
Au       1.29357762      -0.00000000       0.37521065 
Au      -1.29357762       0.00000000      -0.37521065 
Au      -3.81015369       0.00000000      -1.11292726 
Au       3.81015369      -0.00000000       1.11292726 
Au      -0.59878035       0.00000000       2.13172406 
Au       0.59878035      -0.00000000      -2.13172406 
Au       0.00820070       0.00000000      -4.77003028 
Au      -0.00820070      -0.00000000       4.77003028 
Au       2.47308692      -0.00000000      -3.93103773 
Au      -2.47308692       0.00000000       3.93103773 
Au       4.38286369      -0.00000000       3.66279988 
Au      -4.38286369       0.00000000      -3.66279988 
Au       0.00000000      -2.23290025      -0.00000000 
Au       0.00000000       2.23290025      -0.00000000 
