20
-1550.245202
Au      -0.39402564      -0.00000000       5.08723475 
Au       0.39402564       0.00000000      -5.08723475 
Au      -2.12996558       0.00000000      -1.38815414 
Au       2.12996558       0.00000000       1.38815414 
Au       2.60500041       0.00000000      -3.72566192 
Au      -2.60500041       0.00000000       3.72566192 
Au       4.15512693      -0.00000000       5.37611457 
Au      -4.15512693      -0.00000000      -5.37611457 
Au      -0.18679578       0.00000000       2.49424412 
Au       0.18679578      -0.00000000      -2.49424412 
Au       1.94650660       0.00000000       4.00279649 
Au      -1.94650660       0.00000000      -4.00279649 
Au      -4.27893385      -0.00000000      -2.79844449 
Au       4.27893385       0.00000000       2.79844449 
Au      -2.37892700      -0.00000000       1.15194918 
Au       2.37892700      -0.00000000      -1.15194918 
Au      -0.00000000       1.27965804       0.00000000 
Au      -0.00000000      -1.27965804       0.00000000 
Au       0.00000000      -3.86680369       0.00000000 
Au       0.00000000       3.86680369       0.00000000 
