20
-1554.181389
Au      -0.14138962      -0.00000000       0.17302870 
Au       0.96955486      -0.00000000      -3.35481497 
Au      -2.56544518      -0.00000000       1.36047707 
Au       2.20091763       0.00000000      -1.04025862 
Au      -1.36263652       0.00000000       3.68740466 
Au       3.57713830      -0.00000000      -3.22941173 
Au       1.02519838       0.00000000       2.63715933 
Au      -1.40542093      -0.00000000      -2.26780276 
Au      -3.70317844      -0.00000000      -0.97722581 
Au       3.28491908       0.00000000       1.32145129 
Au      -3.69889672       0.00000000      -3.57667828 
Au       3.32698002      -0.00000000       3.91940837 
Au       1.58298697       1.96199402       0.74849153 
Au      -1.95263787       1.92890620      -0.41188660 
Au      -1.95263787      -1.92890620      -0.41188660 
Au       1.58298697      -1.96199402       0.74849153 
Au       0.39532164      -1.93763724      -1.63204917 
Au      -0.77954117      -1.90479816       1.96907562 
Au      -0.77954117       1.90479816       1.96907562 
Au       0.39532164       1.93763724      -1.63204917 
