20
-1552.666983
Au      -0.49051155       0.00000006      -1.43344196 
Au       0.67452048      -0.00000001       3.09748433 
Au      -1.32516983       0.00000004       1.04151591 
Au       2.12835912       0.00000000      -1.98088412 
Au      -3.83569149      -0.00000003       1.77255421 
Au       4.72883807       0.00000001      -1.84927584 
Au      -1.90773234       0.00000004       3.57902309 
Au       0.33838732       0.00000005      -3.90509181 
Au       1.22433820      -0.00000001       0.52913546 
Au      -3.16301729       0.00000004      -0.88846312 
Au       3.24699296      -0.00000001       2.26655819 
Au      -2.22530745      -0.00000000      -3.38594457 
Au      -2.89499253       2.15160611       0.59656251 
Au       3.43556215       1.33383812      -0.01830778 
Au       3.43556215      -1.33383813      -0.01830779 
Au      -2.89499259      -2.15160613       0.59656254 
Au      -2.08650564      -2.16710787      -1.92041471 
Au       1.84893295      -2.15065731       1.92057511 
Au       1.84893295       2.15065729       1.92057512 
Au      -2.08650563       2.16710775      -1.92041475 
