20
-1547.669236
Au      -0.00000000       0.00000000       4.07088540 
Au       0.00000000      -0.00000000      -4.07088543 
Au       0.00000000      -0.00000000      -1.28975580 
Au       0.00000000       0.00000000       1.28975575 
Au       4.35200223       0.00000000       1.30702215 
Au      -4.35200224      -0.00000000       1.30702215 
Au       0.00000000       4.35200223       1.30702215 
Au      -0.00000000      -4.35200223       1.30702215 
Au      -4.35200220      -0.00000000      -1.30702211 
Au       4.35200220       0.00000000      -1.30702212 
Au      -0.00000000       4.35200220      -1.30702212 
Au      -0.00000000      -4.35200220      -1.30702211 
Au      -2.17800319      -0.00000000      -2.67533974 
Au       2.17800319       0.00000000      -2.67533974 
Au      -0.00000000      -2.17800319      -2.67533974 
Au       0.00000000       2.17800319      -2.67533974 
Au       2.17800319       0.00000001       2.67533972 
Au      -2.17800319      -0.00000001       2.67533972 
Au      -0.00000001      -2.17800319       2.67533972 
Au       0.00000001       2.17800319       2.67533972 
