20
-1553.899189
Au       1.41207921      -0.00000000       3.72783883 
Au      -0.84395302      -0.00000000      -3.22008343 
Au       2.68841834       0.00000000       1.43196041 
Au      -3.44878696       0.00000000      -3.13051999 
Au      -3.28826557       0.00000000       1.43911061 
Au       1.55430960      -0.00000000      -2.19449790 
Au      -0.91300989       0.00000000       2.54628890 
Au       3.85029550       0.00000000      -0.89786091 
Au      -2.10458278      -0.00000000      -0.91356645 
Au       0.29894522       0.00000000       0.16323336 
Au       3.80532497      -0.00000000      -3.50025500 
Au      -5.49822157      -0.00000000       2.77459718 
Au       0.88351138       1.90463141       1.98700002 
Au      -0.25420963       1.96387124      -1.55087637 
Au      -0.25420963      -1.96387125      -1.55087636 
Au       0.88351138      -1.90463141       1.98700001 
Au      -1.49976445       1.94335081       0.80936316 
Au       2.11418617       1.93607351      -0.35860961 
Au       2.11418617      -1.93607351      -0.35860961 
Au      -1.49976445      -1.94335080       0.80936316 
