20
-1550.464354
Au       1.22188200      -0.00000003      -0.45016572 
Au      -1.22191121      -0.00000001       0.45003538 
Au      -0.12263764       0.00000005      -7.28436128 
Au       0.11760622      -0.00000012       7.28323417 
Au       3.64175072       0.00000002      -1.40656149 
Au      -3.64134405      -0.00000006       1.40741157 
Au      -0.41475263      -0.00000001      -4.70495482 
Au       0.41495001       0.00000005       4.70472328 
Au       4.02177365       0.00000000      -3.97420093 
Au      -4.01445426      -0.00000000       3.96630896 
Au       1.59300394      -0.00000004      -3.03343090 
Au      -1.59115253       0.00000012       3.03199037 
Au       1.99969697       0.00000000      -5.76959650 
Au      -1.99068874      -0.00000000       5.75768445 
Au       0.84621383       0.00000007       2.12737460 
Au      -0.84531228      -0.00000005      -2.12716911 
Au       4.21402970      -1.33310605      -6.20211824 
Au      -4.22134170      -1.28895150       6.21295726 
Au      -4.22134171       1.28895153       6.21295720 
Au       4.21402970       1.33310603      -6.20211827 
