20
-1551.499398
Au       4.43812340      -0.00000000      -1.87936493 
Au      -4.43812340       0.00000000       1.87936493 
Au       4.71202495      -0.00000000       0.70312392 
Au      -4.71202495      -0.00000000      -0.70312392 
Au      -0.53150332      -0.00000000      -3.87031965 
Au       0.53150332       0.00000000       3.87031965 
Au      -2.31636751      -0.00000000       0.34653433 
Au       2.31636751      -0.00000000      -0.34653433 
Au      -2.57479248      -0.00000000      -2.25124581 
Au       2.57479248       0.00000000       2.25124581 
Au       4.07162868       0.00000000      -4.43287732 
Au      -4.07162868       0.00000000       4.43287732 
Au      -0.10683115       0.00000000      -1.29191549 
Au       0.10683115      -0.00000000       1.29191549 
Au      -1.92289460       0.00000000       2.97956760 
Au       1.92289460       0.00000000      -2.97956760 
Au       1.23349819      -2.23424426       0.47504088 
Au      -1.23349819      -2.23424426      -0.47504088 
Au      -1.23349819       2.23424426      -0.47504088 
Au       1.23349819       2.23424426       0.47504088 
