20
-1551.89933
Au       2.92762469      -0.00000000       2.64864469 
Au      -2.92762469      -0.00000000      -2.64864469 
Au       3.52859596       0.00000000       0.07895246 
Au      -3.52859596       0.00000000      -0.07895246 
Au      -0.99818371       0.00000000      -0.85359723 
Au       0.99818371       0.00000000       0.85359723 
Au       3.98307361      -0.00000000      -2.58191757 
Au      -3.98307361       0.00000000       2.58191757 
Au       0.46110111       0.00000000       3.46129282 
Au      -0.46110111      -0.00000000      -3.46129282 
Au       2.01887448      -0.00000000      -4.26372432 
Au      -2.01887448      -0.00000000       4.26372432 
Au      -1.50504640       0.00000000       1.69363562 
Au       1.50504640      -0.00000000      -1.69363562 
Au       5.94245889       0.00000000      -0.89736981 
Au      -5.94245889      -0.00000000       0.89736981 
Au       2.51930863       2.14276747       1.20992142 
Au      -2.51930863       2.14276747      -1.20992142 
Au      -2.51930863      -2.14276747      -1.20992142 
Au       2.51930863      -2.14276747       1.20992142 
