20
-1555.144979
Au       0.86212063      -0.00000022       2.01638745 
Au      -1.39736173       0.00000012      -3.76176786 
Au       3.10664450       0.00000022       0.62830425 
Au      -3.37010784      -0.00000007       1.05987552 
Au      -4.13359184       0.00000000       3.54284302 
Au       3.47803271      -0.00000020      -1.96565088 
Au       1.17136265      -0.00000008      -3.27037552 
Au      -1.56832510      -0.00000003       2.98747141 
Au       0.81482493      -0.00000004      -0.67743845 
Au      -2.29416088       0.00000005      -1.31838222 
Au       1.46917089       2.22013273       0.75670450 
Au       1.46917108      -2.22013249       0.75670472 
Au      -0.58189452       1.86816534      -2.06460698 
Au      -0.12268982       2.26040349       2.87775824 
Au      -0.12268966      -2.26040329       2.87775807 
Au      -0.58189470      -1.86816530      -2.06460709 
Au      -1.11337295       1.39362490       0.60945636 
Au       2.01406734       2.13650070      -1.79994542 
Au       2.01406715      -2.13650092      -1.79994550 
Au      -1.11337286      -1.39362493       0.60945637 
