20
-1553.497374
Au      -0.52208524       0.00000000       1.33723942 
Au       0.93041717      -0.00000000      -2.83656521 
Au       0.29843196      -0.00000000       3.81632975 
Au      -2.44153710       0.00000000      -3.56862273 
Au      -3.05327631       0.00000000       0.72713628 
Au       3.33498185      -0.00000000      -0.43895625 
Au       3.50961117      -0.00000000      -3.03637733 
Au      -2.29979882      -0.00000000       3.29256480 
Au      -1.16566980       0.00000000      -1.27855760 
Au       2.06875701       0.00000000       1.84475852 
Au       0.96706701       1.29604153      -0.50712267 
Au       0.96706701      -1.29604153      -0.50712267 
Au       2.96429193       2.31986691       0.80604991 
Au      -3.41033219       1.33060289      -1.52421994 
Au      -3.41033219      -1.33060289      -1.52421994 
Au       2.96429193      -2.31986691       0.80604991 
Au       0.66929187       3.60464274       0.66020105 
Au      -1.52023456       2.24272571       0.08059528 
Au      -1.52023456      -2.24272571       0.08059528 
Au       0.66929187      -3.60464274       0.66020105 
