20
-1554.73131
Au       0.34524122      -0.00000000       0.90936003 
Au       0.19671549      -0.00000000      -4.13024097 
Au      -2.65257748      -0.00000000       3.85006538 
Au       2.66550785       0.00000000      -4.91378859 
Au      -2.27959131      -0.00000000       1.25097318 
Au       2.34485925       0.00000000      -2.33356299 
Au       2.87301706      -0.00000000       0.35962582 
Au      -0.39223995       0.00000000      -1.56228071 
Au      -2.29833551      -0.00000000      -3.32326892 
Au       1.74844720       0.00000000       3.14090911 
Au      -0.89722105      -2.29215462       0.53885293 
Au      -0.89722105       2.29215462       0.53885293 
Au      -0.58296642      -1.35428852       3.00918382 
Au       1.35204593      -1.90822767      -0.83654042 
Au       1.35204593       1.90822767      -0.83654042 
Au      -0.58296642       1.35428852       3.00918382 
Au      -2.72643902       1.31069541      -1.06716328 
Au       1.57905866       2.18054863       1.73177128 
Au       1.57905866      -2.18054863       1.73177128 
Au      -2.72643902      -1.31069541      -1.06716328 
