20
-1551.171414
Au      -0.00000000      -0.00000006      -5.65167327 
Au      -0.00000000      -0.00000009       5.65167327 
Au      -0.00000000       0.00000024      -1.92844678 
Au      -0.00000000       0.00000050       1.92844678 
Au      -2.55694872       0.00023542       1.30084335 
Au       2.55694872      -0.00023543       1.30084335 
Au       0.00024174      -2.53233090       1.29741371 
Au      -0.00024174       2.53233043       1.29741461 
Au       2.55694872      -0.00023542      -1.30084335 
Au      -2.55694872       0.00023543      -1.30084335 
Au       0.00024174      -2.53233080      -1.29741378 
Au      -0.00024174       2.53233053      -1.29741454 
Au      -1.92301963       0.00001805      -3.85315369 
Au       1.92301963      -0.00001803      -3.85315369 
Au       0.00000394      -1.83703317      -3.80801018 
Au      -0.00000394       1.83703324      -3.80800970 
Au       1.92301963      -0.00001803       3.85315369 
Au      -1.92301963       0.00001805       3.85315369 
Au       0.00000394      -1.83703318       3.80801028 
Au      -0.00000394       1.83703323       3.80800960 
