20
-1550.336562
Au       1.19944074      -0.00325889      -3.32002851 
Au      -0.34622268      -0.00026531       3.51905533 
Au       1.41937487       0.00143366      -0.70419140 
Au      -0.80327611      -0.00098962       0.96497273 
Au      -3.48229598       0.00177976      -2.41932023 
Au       3.82212099       0.00100972       0.42777830 
Au      -0.93517117       0.00201227      -1.80416905 
Au       1.67602828       0.00119326       1.89680927 
Au      -2.00855955      -3.81887839       0.03698929 
Au      -2.01108830       3.81900219       0.04194771 
Au      -0.07291876      -2.15848243      -0.46272525 
Au      -0.07407009       2.16020829      -0.45773035 
Au       2.38304478      -2.16268564       0.44697937 
Au      -2.66839361      -1.34191488      -0.34655235 
Au      -2.66915843       1.34196004      -0.34387788 
Au       2.38325568       2.16477480       0.44802590 
Au      -0.84844977      -1.28288291       5.71056109 
Au       1.94155658      -1.33679067      -5.43092709 
Au       1.93659141       1.33027645      -5.43314524 
Au      -0.84180887       1.28249829       5.71199193 
