20
-1553.985349
Au       0.15991765      -0.00000240       0.92176602 
Au       0.05084070      -0.00000171      -3.06367304 
Au      -1.57297798      -0.00000008       2.87125495 
Au       1.87026121      -0.00000106      -1.06680444 
Au       1.00905608      -0.00000158       3.45942759 
Au      -2.33863068       0.00000238      -4.51553642 
Au      -2.22844734      -0.00000176      -1.77648881 
Au       2.94620899      -0.00008194       1.32991765 
Au      -0.59495204       3.32413878       0.97516993 
Au      -0.59497215      -3.32414995       0.97517539 
Au      -0.17009995       1.77435850      -1.10084271 
Au      -0.17010880      -1.77435545      -1.10085740 
Au      -1.49607230       2.12361575      -3.31626564 
Au       2.77247193       1.90606322       3.08537281 
Au       2.77246898      -1.90602723       3.08533036 
Au      -1.49606882      -2.12361667      -3.31626031 
Au       1.73917127       2.19941731       0.66763595 
Au      -2.19864578       1.30477175       0.60900805 
Au      -2.19864625      -1.30477153       0.60900775 
Au       1.73922529      -2.19935633       0.66766229 
