20
-1552.832429
Au       3.53656332      -0.00000000       2.28492399 
Au      -3.53656332       0.00000000      -2.28492399 
Au       0.22000005      -0.00000000      -1.89369692 
Au      -0.22000005       0.00000000       1.89369692 
Au       4.54347082      -0.00000000      -0.11307662 
Au      -4.54347082       0.00000000       0.11307662 
Au       1.08964483       0.00000000      -4.36550283 
Au      -1.08964483       0.00000000       4.36550283 
Au      -3.89528987       0.00000000      -4.85556084 
Au       3.89528987      -0.00000000       4.85556084 
Au      -1.94073903       0.00000000      -0.17863976 
Au       1.94073903      -0.00000000       0.17863976 
Au      -1.47350419       0.00000000      -3.92205516 
Au       1.47350419       0.00000000       3.92205516 
Au      -0.00000000      -1.84654674       0.00000000 
Au       0.00000000       1.84654674      -0.00000000 
Au      -1.64840232       1.88615958      -2.02678514 
Au       1.64840232       1.88615958       2.02678514 
Au       1.64840232      -1.88615958       2.02678514 
Au      -1.64840232      -1.88615958      -2.02678514 
