20
-1550.306855
Au       4.28428932      -0.00000000       1.13328667 
Au      -4.28428932       0.00000000      -1.13328667 
Au       0.19745825       0.00000000      -1.84737456 
Au      -0.19745825      -0.00000000       1.84737456 
Au      -0.26255032      -0.00000000      -4.42291092 
Au       0.26255032       0.00000000       4.42291092 
Au       2.26900274       0.00000000       2.77256671 
Au      -2.26900274      -0.00000000      -2.77256671 
Au      -3.91293204       0.00000000       1.46261142 
Au       3.91293204      -0.00000000      -1.46261142 
Au       2.20842142      -0.00000000      -3.54422253 
Au      -2.20842142       0.00000000       3.54422253 
Au      -1.85076383      -0.00000000      -0.17175060 
Au       1.85076383       0.00000000       0.17175060 
Au      -0.00000000       1.87891164       0.00000000 
Au       0.00000000      -1.87891164      -0.00000000 
Au      -3.65942159      -2.09455373       2.99341387 
Au       3.65942159      -2.09455373      -2.99341387 
Au       3.65942159       2.09455373      -2.99341387 
Au      -3.65942159       2.09455373       2.99341387 
