20
-1553.758535
Au      -6.06055508      -0.21844110       4.07279022 
Au       4.76807332      -0.54020257      -4.76721657 
Au       0.31326443       0.41827587      -3.66063445 
Au       1.03359012       0.01776337       3.69181005 
Au       1.43121704       1.01216264      -1.31885024 
Au      -1.25026064       0.01033806       2.38539350 
Au       3.08832077      -0.99337232      -0.60084357 
Au      -3.07734278      -0.06510684       0.27499905 
Au      -3.83506737      -0.13769277       2.77000687 
Au       2.75701053      -0.40349575      -3.14082422 
Au       1.21545473      -0.19296486       1.06940521 
Au      -1.61642647      -0.08221203      -1.94662065 
Au      -0.88522917       1.32935122       0.14296383 
Au      -0.94417002      -1.55664288       0.19068504 
Au       0.78616230       3.29692616      -0.14970446 
Au       1.39471863      -2.77143190       0.32482607 
Au       0.71480177      -1.47448507      -1.85247163 
Au       0.18841456      -2.18311658       2.55428680 
Au       0.57957881       2.10981768       2.19955116 
Au      -0.60155548       2.42452966      -2.23955199 
