20
-1551.85119
Au      -2.41772157       0.00000000       0.18105868 
Au       2.41772157       0.00000000      -0.18105868 
Au       3.86603629      -0.00000000       1.98438509 
Au      -3.86603629      -0.00000000      -1.98438509 
Au      -0.86009485      -0.00000000      -4.25146840 
Au       0.86009485      -0.00000000       4.25146840 
Au       1.71904518       0.00000000      -4.67808737 
Au      -1.71904518       0.00000000       4.67808737 
Au       0.77062201      -0.00000000      -2.20835991 
Au      -0.77062201      -0.00000000       2.20835991 
Au       3.35005764       0.00000000      -2.64336021 
Au      -3.35005764       0.00000000       2.64336021 
Au       0.00000000      -1.29310822      -0.00000000 
Au      -0.00000000       1.29310822       0.00000000 
Au       0.00000000      -3.88096566       0.00000000 
Au      -0.00000000       3.88096566      -0.00000000 
Au      -1.59457253      -1.30367965      -2.07119679 
Au       1.59457253      -1.30367965       2.07119679 
Au       1.59457253       1.30367965       2.07119679 
Au      -1.59457253       1.30367965      -2.07119679 
