20
-1551.406809
Au      -1.04183003      -0.00000000       1.99099117 
Au       1.04183003       0.00000000      -1.99099117 
Au      -1.65672190      -0.00000000      -1.51850981 
Au       1.65672190       0.00000000       1.51850981 
Au      -3.69284117      -0.00000000       1.97689085 
Au       3.69284117       0.00000000      -1.97689085 
Au       3.67506819       0.00000000       3.15961050 
Au      -3.67506819      -0.00000000      -3.15961050 
Au       2.38167685       0.00000000      -4.22045564 
Au      -2.38167685      -0.00000000       4.22045564 
Au       4.14517896       0.00000000       0.60393385 
Au      -4.14517896      -0.00000000      -0.60393385 
Au       0.00000000       3.92516822      -0.00000000 
Au      -0.00000000      -3.92516822       0.00000000 
Au      -0.00000000       1.35830685      -0.00000000 
Au       0.00000000      -1.35830685      -0.00000000 
Au       2.51956106      -1.78608911      -0.44108360 
Au      -2.51956106      -1.78608911       0.44108360 
Au      -2.51956106       1.78608911       0.44108360 
Au       2.51956106       1.78608911      -0.44108360 
