20
-1554.235126
Au       3.26399962      -0.38357432      -0.96538516 
Au      -3.26400050       0.38357658      -0.96538897 
Au       0.13104408       3.07840274      -1.04318570 
Au      -0.13103568      -3.07840316      -1.04318936 
Au       2.49940083       0.36837969       1.40917810 
Au      -2.49939845      -0.36837988       1.40918245 
Au       0.81391513       2.41592322       1.40783996 
Au      -0.81391436      -2.41592167       1.40784386 
Au      -4.16221493       1.34327658      -3.21020876 
Au       4.16221761      -1.34327610      -3.21021174 
Au       2.22000449      -2.56851680      -1.99819325 
Au      -2.22001167       2.56851374      -1.99819630 
Au       1.62664858       1.34167646       3.68873396 
Au      -1.62664744      -1.34167483       3.68873120 
Au      -0.86106721       1.03847345       2.89342647 
Au       0.86106371      -1.03847653       2.89342664 
Au      -2.49351570      -2.08867285      -0.59434264 
Au       2.49351199       2.08867385      -0.59434195 
Au       1.67734448      -1.98117982       0.54278344 
Au      -1.67734460       1.98117964       0.54278411 
