20
-1553.442527
Au       1.08338220      -0.00000000       2.94838486 
Au       0.76391455       0.00000001       0.21194595 
Au       2.74557068      -0.00000000      -3.48457626 
Au      -3.75323653       0.00000000       0.78521966 
Au       3.15213870       0.00000000      -0.92589178 
Au      -1.64849791       0.00000002      -0.75659528 
Au       0.40391270       0.00000000      -2.38642851 
Au      -1.33031131       0.00000007       1.89097337 
Au       2.83664900      -1.30537652       1.34064847 
Au      -3.83647859      -1.30945979      -1.49592289 
Au      -3.83647859       1.30945979      -1.49592289 
Au       2.83664900       1.30537652       1.34064847 
Au      -1.75549237       1.33100220      -3.06212316 
Au       2.01634189       2.43870956       3.53763164 
Au       2.01634189      -2.43870956       3.53763163 
Au      -1.75549237      -1.33100220      -3.06212316 
Au      -0.31614729       2.26300575      -1.00269088 
Au       0.34669081       2.23036026       1.54094086 
Au       0.34669082      -2.23036027       1.54094089 
Au      -0.31614726      -2.26300584      -1.00269099 
