20
-1552.735003
Au       2.42509159      -0.00000000       0.27279972 
Au      -2.42509159      -0.00000000      -0.27279972 
Au       0.09926709      -0.00000000      -1.28007234 
Au      -0.09926709      -0.00000000       1.28007234 
Au      -2.01110364       0.00000000      -2.86164293 
Au       2.01110364      -0.00000000       2.86164293 
Au       2.57249405      -0.00000000      -2.38191015 
Au      -2.57249404      -0.00000000       2.38191015 
Au       4.74245959      -0.00000000      -0.93247346 
Au      -4.74245959       0.00000000       0.93247346 
Au      -0.41596628       0.00000000       3.84650138 
Au       0.41596628       0.00000001      -3.84650137 
Au       1.12943868       2.26249047       0.69167027 
Au      -1.12943869       2.26249048      -0.69167028 
Au      -1.12943868      -2.26249048      -0.69167028 
Au       1.12943868      -2.26249048       0.69167028 
Au       1.21805531       2.24864178      -1.96714729 
Au      -1.21805531       2.24864178       1.96714729 
Au      -1.21805531      -2.24864178       1.96714729 
Au       1.21805531      -2.24864178      -1.96714729 
