20
-1552.797933
Au      -0.62287436       0.00000000       3.58501313 
Au      -0.32206513       0.00000000      -0.16579720 
Au       1.97023695      -0.00000000       3.88583339 
Au      -0.85690415      -0.00000000      -4.66817801 
Au       3.19402406       0.00000000       1.59521658 
Au      -2.76598093       0.00000000      -1.15583409 
Au      -0.16465910       2.72835116      -0.17629041 
Au      -0.16465910      -2.72835116      -0.17629041 
Au      -0.51510288      -3.92876152      -2.45448983 
Au       0.33262733      -3.82613592       2.15279261 
Au       0.33262733       3.82613592       2.15279261 
Au      -0.51510288       3.92876152      -2.45448983 
Au      -0.63662705      -2.58411227      -4.67048627 
Au       0.65604518      -2.25017847       4.20834356 
Au       0.65604518       2.25017847       4.20834356 
Au      -0.63662705       2.58411227      -4.67048627 
Au      -0.86135080      -1.32422024      -2.36997845 
Au       0.89084909      -1.29733354       1.77198190 
Au       0.89084909       1.29733353       1.77198190 
Au      -0.86135080       1.32422024      -2.36997845 
