20
-1555.569022
Au      -1.03249683       0.08095269      -2.09198344 
Au       0.92709336      -0.48406467       1.65185348 
Au      -0.11904459       1.09057066      -4.37918453 
Au       0.14009458       0.30852728       4.04144337 
Au      -2.24771194      -0.53478633       4.69854851 
Au       2.05954217      -0.14040784      -5.15176013 
Au       0.24789131       3.78684482       0.10280737 
Au       0.10984895      -3.00884589       0.74520678 
Au       0.48753746      -1.46260664      -3.56725545 
Au      -0.98944203      -1.87869449       2.84067168 
Au      -1.86978648       0.59081252       2.35796261 
Au       1.81179642       0.64926351      -2.66176713 
Au      -0.08747646       2.54842614      -2.18484641 
Au       0.33943206       2.13558358       2.15100607 
Au       1.42826590      -1.96518707       3.88269058 
Au      -0.85791302      -2.67740370      -1.68003590 
Au       1.32298566       1.40531821      -0.18909590 
Au      -1.30470153       1.67718140       0.03561691 
Au      -1.44756445      -0.97367191       0.27912321 
Au       1.08164945      -1.14781228      -0.88100172 
