20
-1555.114359
Au       0.02217154      -0.00000022       3.43556838 
Au       1.02257322      -0.00000011       0.94349634 
Au      -2.46801548       0.00000008      -0.40772064 
Au       3.43953233       0.00000004      -0.30159452 
Au      -0.15248615      -3.49577216       0.51789868 
Au      -0.15248668       3.49577280       0.51789957 
Au      -0.19784329      -1.36775613      -1.10340724 
Au      -0.19784305       1.36775699      -1.10340631 
Au       2.23707066      -1.30168518      -2.27704700 
Au      -1.28327654      -1.32164802       1.51882474 
Au      -1.28327689       1.32164839       1.51882497 
Au       2.23707063       1.30168427      -2.27704716 
Au       1.00197591      -2.23394880       2.51079284 
Au      -2.35880107      -1.30427918      -2.68934294 
Au      -2.35880005       1.30427860      -2.68934291 
Au       1.00197614       2.23394804       2.51079235 
Au       2.17820981       2.30975334       0.14340490 
Au      -2.43298078       2.66803711      -0.45600001 
Au      -2.43298072      -2.66803688      -0.45599980 
Au       2.17821050      -2.30975298       0.14340578 
