20
-1547.718672
Au       0.00000000      -0.00000000      -4.05693357 
Au       0.00000000      -0.00000000       4.05693357 
Au       0.00000000      -0.00000000       1.36131864 
Au       0.00000000      -0.00000000      -1.36131864 
Au       2.62330754      -0.00000000      -1.29242252 
Au      -2.62330754      -0.00000000      -1.29242252 
Au      -0.00000000       2.62330754      -1.29242252 
Au       0.00000000      -2.62330754      -1.29242252 
Au      -2.62330754       0.00000000       1.29242252 
Au       2.62330754       0.00000000       1.29242252 
Au      -0.00000000       2.62330754       1.29242252 
Au      -0.00000000      -2.62330754       1.29242252 
Au      -2.56698649      -0.00000000       3.88114609 
Au       2.56698649      -0.00000000       3.88114609 
Au       0.00000000      -2.56698649       3.88114609 
Au       0.00000000       2.56698649       3.88114609 
Au       2.56698649      -0.00000000      -3.88114609 
Au      -2.56698649      -0.00000000      -3.88114609 
Au       0.00000000      -2.56698649      -3.88114609 
Au      -0.00000000       2.56698649      -3.88114609 
