20
-1551.003084
Au      -0.43405019       0.00000008       2.41243477 
Au       0.43404124      -0.00000009      -2.41244181 
Au      -2.15876012       0.00000310      -1.67846643 
Au       2.15877103       0.00000355       1.67843913 
Au       1.46363809       0.00000034       4.18709316 
Au      -1.46363950      -0.00000034      -4.18708097 
Au      -4.07179461       0.00000022       0.13060909 
Au       4.07179577      -0.00000028      -0.13060384 
Au       3.05773722       0.00000009      -2.53740471 
Au      -3.05773190      -0.00000013       2.53739679 
Au       0.00001576       3.07202735       0.00000062 
Au       0.00001664      -3.07202741       0.00000078 
Au       1.84844328      -1.32645411      -0.61574962 
Au      -1.84844620      -1.32643591       0.61575971 
Au      -1.84844665       1.32643597       0.61575984 
Au       1.84844289       1.32645481      -0.61574885 
Au       2.49541087       3.60223892       0.47790170 
Au      -2.49542687       3.60227529      -0.47790047 
Au      -2.49542779      -3.60227864      -0.47789968 
Au       2.49541102      -3.60224280       0.47790078 
