20
-1551.950672
Au       2.52970498       0.00000021       1.23759136 
Au      -2.36362108       0.00000069      -1.25770712 
Au       0.14810364      -0.00000039       2.35110026 
Au       0.02801306      -0.00000031      -2.35858899 
Au       2.29863857       0.00000005       3.83250912 
Au      -2.10996700       0.00000010      -3.84629048 
Au       2.46240930      -0.00000012      -1.36920116 
Au      -2.29613990       0.00000071       1.37248729 
Au       2.09968836      -0.00000002      -3.94919438 
Au      -1.91219755      -0.00000001       3.94478181 
Au      -0.39040033       1.31096473       0.00812880 
Au      -0.39038926      -1.31096448       0.00812857 
Au      -4.19985944       1.29574442       0.10519978 
Au       4.42668985       1.29123923      -0.11584447 
Au       4.42668983      -1.29123937      -0.11584448 
Au      -4.19986955      -1.29574418       0.10519991 
Au       2.03238027      -2.27425600      -0.05321691 
Au      -2.31112835      -3.07614518       0.07698906 
Au      -2.31112845       3.07614239       0.07698906 
Au       2.03238306       2.27425753      -0.05321703 
