20
-1552.155126
Au      -2.69191046      -0.00000002      -3.13566735 
Au       2.69190401       0.00000002       3.13564472 
Au       0.34808073       0.00000010      -1.34246340 
Au      -0.34816212      -0.00000010       1.34245192 
Au      -2.14438890      -0.00000000      -0.55434875 
Au       2.14446981       0.00000000       0.55438644 
Au      -4.63344036       0.00000000      -1.37044947 
Au       4.63341229      -0.00000000       1.37044512 
Au      -2.89058212       0.00000000       2.11963404 
Au       2.89060094       0.00000000      -2.11963769 
Au      -0.00000086       2.26211979      -0.00003081 
Au      -0.00000088      -2.26211979      -0.00003051 
Au       1.48926275      -2.20826513      -2.15702386 
Au      -1.48927425      -2.20825440       2.15703271 
Au      -1.48927433       2.20825445       2.15703278 
Au       1.48926267       2.20826507      -2.15702379 
Au      -1.15198005       1.95241301      -2.32531095 
Au       1.15200067       1.95241207       2.32533500 
Au       1.15200058      -1.95241208       2.32533490 
Au      -1.15198013      -1.95241300      -2.32531104 
