20
-1553.448611
Au       0.61547364       0.00000000      -2.76783082 
Au      -0.61547364       0.00000000       2.76783082 
Au      -2.24779789      -0.00000000       0.73475658 
Au       2.24779789      -0.00000000      -0.73475658 
Au       1.41157342      -0.00000000       4.42795533 
Au      -1.41157342      -0.00000000      -4.42795533 
Au       1.88642818       0.00000000       1.84693259 
Au      -1.88642818       0.00000000      -1.84693259 
Au       0.00000000      -1.26221003      -0.00000000 
Au       0.00000000       1.26221014      -0.00000000 
Au       0.00000000      -3.82415069       0.00000000 
Au       0.00000000       3.82415060       0.00000000 
Au      -1.46395989       2.37589893       1.85033950 
Au       1.46395989       2.37589893      -1.85033950 
Au       1.46395990      -2.37589894      -1.85033952 
Au      -1.46395990      -2.37589894       1.85033952 
Au       2.26170735       2.37472087       0.65197476 
Au      -2.26170735       2.37472087      -0.65197476 
Au      -2.26170736      -2.37472088      -0.65197477 
Au       2.26170736      -2.37472088       0.65197477 
