20
-1553.899607
Au       1.64590217      -0.00000000      -3.08413309 
Au      -0.22631333      -0.00000000      -1.21382571 
Au      -0.89257317       0.00000000       2.51071521 
Au       2.53937437      -0.00000000      -0.60967409 
Au       3.04743593       2.47601171       0.31767098 
Au      -3.60502755       3.02282123      -0.55452811 
Au      -3.60502755      -3.02282123      -0.55452811 
Au       3.04743593      -2.47601171       0.31767098 
Au      -1.10780029      -3.13668537      -1.31433189 
Au       0.70261117      -3.83340581       0.47507632 
Au       0.70261117       3.83340581       0.47507632 
Au      -1.10780029       3.13668537      -1.31433189 
Au      -1.87206065       1.35413786       0.46073880 
Au       0.80743419       1.29377430       0.95409922 
Au       0.80743419      -1.29377430       0.95409922 
Au      -1.87206065      -1.35413786       0.46073880 
Au       1.29689600       2.15883608      -1.59732310 
Au      -0.80268383       2.70959404       2.45705663 
Au      -0.80268383      -2.70959404       2.45705663 
Au       1.29689600      -2.15883608      -1.59732309 
