20
-1553.477833
Au      -2.62144386       0.00000004      -0.14231086 
Au       2.62144297       0.00000003       0.14231114 
Au       2.50588546      -0.00000002       4.52383274 
Au      -2.50588555      -0.00000002      -4.52383166 
Au      -3.97897301      -0.00000002      -2.40743359 
Au       3.97897280      -0.00000000       2.40743446 
Au       5.27064640       0.00000001       0.18972245 
Au      -5.27064649       0.00000002      -0.18972264 
Au      -0.70854731      -1.31406847       1.13460653 
Au       0.70854779      -1.31406831      -1.13460736 
Au       0.70854772       1.31406826      -1.13460737 
Au      -0.70854729       1.31406847       1.13460659 
Au      -1.69392393      -1.31819603      -2.40953087 
Au       1.69392320      -1.31819713       2.40953065 
Au       1.69392322       1.31819716       2.40953068 
Au      -1.69392399       1.31819610      -2.40953090 
Au      -1.07974328      -3.19072704      -0.71923612 
Au       1.07974422      -3.19072611       0.71923613 
Au       1.07974426       3.19072606       0.71923609 
Au      -1.07974332       3.19072700      -0.71923608 
