20
-1554.468774
Au       3.20308391      -1.30280339      -0.13354286 
Au      -4.28058025       0.51957980       4.28317812 
Au       2.32799459       0.77084385      -1.68567229 
Au      -1.92410065       0.11251949       3.31771128 
Au       0.67594615      -0.12780157       3.17664659 
Au       0.35436393      -0.13647605      -3.22901852 
Au      -0.95261712      -0.67324229       0.93864357 
Au      -0.32087031       1.24925285      -0.86823065 
Au       0.72905920      -1.37670862      -0.96760012 
Au      -0.84881255      -2.27062207       3.01159423 
Au      -0.58814846       1.78329566       1.79081611 
Au       0.70344214       2.44785479      -2.94961094 
Au      -1.92787183      -0.91820455      -4.21758047 
Au       3.32738624      -0.45566545       2.40423551 
Au       4.07247139       1.09991718       0.33604780 
Au      -3.92319715       0.10933220      -2.88543991 
Au       1.33885215      -2.07220666       1.54709547 
Au      -1.78556181      -0.82422706      -1.60253657 
Au      -1.72874414       1.47621289      -3.08988498 
Au       1.54790456       0.58914903       0.82314863 
