20
-1552.559464
Au      -0.16909265      -0.00000001       0.28164323 
Au      -0.16558097      -0.00000000      -2.59018373 
Au      -0.12915218      -2.72449828       0.37749494 
Au      -0.12915228       2.72449825       0.37749491 
Au       2.31355846       3.52637411       0.02111250 
Au      -2.57562985       3.58793175       0.29081700 
Au      -2.57562990      -3.58793182       0.29081703 
Au       2.31355845      -3.52637413       0.02111253 
Au       1.58216396      -1.32948654      -1.17455969 
Au      -2.14025106      -1.30181936       1.44884838 
Au      -2.14025106       1.30181939       1.44884833 
Au       1.58216397       1.32948709      -1.17456017 
Au      -1.87495278       1.50398630      -1.19514249 
Au       1.85578758       1.38281427       1.48952625 
Au       1.85578772      -1.38281476       1.48952683 
Au      -1.87495283      -1.50398586      -1.19514300 
Au      -2.14324095      -1.30571205      -3.76274673 
Au       3.27905359      -1.32756473       3.65892009 
Au       3.27905366       1.32756472       3.65892020 
Au      -2.14324089       1.30571167      -3.76274644 
