20
-1552.903865
Au       2.74528581       0.00000000      -3.07927897 
Au      -2.74528581       0.00000000       3.07927897 
Au      -1.63748851      -0.00000000       0.74004823 
Au       1.63748851       0.00000000      -0.74004823 
Au       0.86098936      -0.00000000       1.74762735 
Au      -0.86098936      -0.00000000      -1.74762735 
Au      -0.00000000       1.99735547       0.00000000 
Au      -0.00000000      -1.99735547       0.00000000 
Au       1.78285547      -2.34997169      -1.90638914 
Au      -1.78285547      -2.34997169       1.90638914 
Au      -1.78285547       2.34997169       1.90638914 
Au       1.78285547       2.34997169      -1.90638914 
Au       2.47560643       1.99434120       0.79592071 
Au      -2.47560643       1.99434120      -0.79592071 
Au      -2.47560643      -1.99434120      -0.79592071 
Au       2.47560643      -1.99434120       0.79592071 
Au       4.04593225      -1.29242075      -1.16537865 
Au      -4.04593225      -1.29242075       1.16537865 
Au      -4.04593225       1.29242075       1.16537865 
Au       4.04593225       1.29242075      -1.16537865 
