20
-1555.438576
Au      -0.71773165       0.00000002       3.67810604 
Au       0.71773165      -0.00000001      -3.67810604 
Au       3.05389527      -0.00000001      -2.17176443 
Au      -3.05389527       0.00000002       2.17176443 
Au      -0.68929206       0.00000070       1.06973898 
Au       0.68929206      -0.00000042      -1.06973898 
Au      -0.00000004       2.34974161       0.00000006 
Au       0.00000004      -2.34974165      -0.00000006 
Au      -2.59236367      -1.37708957      -0.10652466 
Au       2.59236332      -1.37708907       0.10652490 
Au       2.59236367       1.37708959       0.10652461 
Au      -2.59236332       1.37708909      -0.10652485 
Au       1.44364958      -2.18799084      -2.23765017 
Au      -1.44364972      -2.18799122       2.23765040 
Au      -1.44364954       2.18799074       2.23765012 
Au       1.44364969       2.18799112      -2.23765035 
Au       1.16565843      -1.37806026       2.31881822 
Au      -1.16565850      -1.37805976      -2.31881780 
Au      -1.16565842       1.37806020      -2.31881817 
Au       1.16565849       1.37805970       2.31881775 
