20
-1552.645581
Au      -0.00000000      -0.00000000       5.04708912 
Au      -0.00000000       0.00000000      -5.04708938 
Au      -0.00000000      -0.00000001      -1.33084886 
Au      -0.00000000       0.00000001       1.33084900 
Au       1.90585249       0.00046678      -3.23790365 
Au      -1.90585249      -0.00046678      -3.23790365 
Au       0.00016670       1.85632825      -3.18912616 
Au      -0.00016670      -1.85632826      -3.18912616 
Au      -1.90585126      -0.00046678       3.23790370 
Au       1.90585125       0.00046678       3.23790370 
Au       0.00016670       1.85632807       3.18912617 
Au      -0.00016670      -1.85632807       3.18912617 
Au      -1.90118265      -1.83347957      -1.31306284 
Au       1.90118265       1.83347956      -1.31306284 
Au       1.90086688      -1.83199231      -1.31341153 
Au      -1.90086688       1.83199231      -1.31341153 
Au       1.90086688      -1.83199230       1.31341153 
Au      -1.90086688       1.83199231       1.31341153 
Au      -1.90118265      -1.83347956       1.31306284 
Au       1.90118265       1.83347957       1.31306285 
