20
-1554.089651
Au      -0.21911271      -0.00000396      -1.93862440 
Au       0.21911312       0.00000399       1.93862359 
Au       2.81856813      -0.00004160       2.66553721 
Au      -2.81856717       0.00004251      -2.66553618 
Au      -1.93313493      -0.00000588       0.07355474 
Au       1.93313344       0.00000587      -0.07355465 
Au      -0.00005971      -1.86108441      -0.00003276 
Au       0.00007153       1.86108437       0.00003890 
Au      -1.80391988      -2.23049796      -1.83783376 
Au       1.80397086      -2.23046509       1.83789526 
Au       1.80391645       2.23049812       1.83782920 
Au      -1.80397480       2.23046408      -1.83790037 
Au      -4.08757937      -1.30061545      -0.75455276 
Au       4.08757521      -1.30061240       0.75455913 
Au       4.08757955       1.30061560       0.75455286 
Au      -4.08757493       1.30061215      -0.75455919 
Au       2.40136302      -2.66927874      -0.68119724 
Au      -2.40134042      -2.66926783       0.68117762 
Au      -2.40136544       2.66927959       0.68119892 
Au       2.40133803       2.66926703      -0.68117610 
