20
-1555.23295
Au       1.26498609       0.00000000      -1.99554044 
Au      -1.26498609      -0.00000000       1.99554044 
Au       2.30243317      -0.00000000       0.52851305 
Au      -2.30243317       0.00000000      -0.52851305 
Au       0.00000000      -1.33688588       0.00000000 
Au       0.00000000       1.33688588      -0.00000000 
Au       0.00000000      -4.02975426       0.00000001 
Au      -0.00000000       4.02975426      -0.00000000 
Au      -2.22547030      -2.64243263      -0.51272925 
Au       2.22547030      -2.64243263       0.51272925 
Au       2.22547030       2.64243263       0.51272925 
Au      -2.22547030       2.64243263      -0.51272925 
Au      -1.02387448      -1.33301981      -2.49149869 
Au       1.02387447      -1.33301982       2.49149868 
Au       1.02387447       1.33301981       2.49149869 
Au      -1.02387447       1.33301982      -2.49149868 
Au      -1.22208495      -2.64228773       1.92902709 
Au       1.22208495      -2.64228773      -1.92902709 
Au       1.22208495       2.64228773      -1.92902709 
Au      -1.22208495       2.64228773       1.92902709 
