20
-1554.18361
Au       4.26356225      -0.00000000      -3.09155223 
Au      -4.26356225      -0.00000000       3.09155223 
Au      -3.16379755       0.00000000       0.71404412 
Au       3.16379755       0.00000000      -0.71404412 
Au       2.04943564      -1.31620499      -2.72123889 
Au      -2.04943564      -1.31620499       2.72123889 
Au      -2.04943563       1.31620499       2.72123889 
Au       2.04943563       1.31620499      -2.72123889 
Au      -3.01834924      -1.30349499      -1.56378300 
Au       3.01834924      -1.30349499       1.56378300 
Au       3.01834924       1.30349499       1.56378300 
Au      -3.01834924       1.30349499      -1.56378300 
Au       0.48898898       1.35863050       2.16364048 
Au      -0.48898898       1.35863050      -2.16364048 
Au      -0.48898898      -1.35863050      -2.16364048 
Au       0.48898898      -1.35863050       2.16364048 
Au      -1.29252593       2.07572546       0.28361802 
Au       1.29252593       2.07572546      -0.28361802 
Au       1.29252593      -2.07572546      -0.28361802 
Au      -1.29252593      -2.07572546       0.28361802 
