20
-1552.52874
Au       3.16553839      -0.00000000       0.44658699 
Au      -3.16553839      -0.00000000      -0.44658699 
Au       0.85182865       0.00000001       1.74893091 
Au      -0.85182865       0.00000001      -1.74893091 
Au       5.08682593       1.29827942       4.08840681 
Au      -5.08682593       1.29827942      -4.08840681 
Au      -5.08682593      -1.29827943      -4.08840682 
Au       5.08682593      -1.29827943       4.08840682 
Au       0.90096731      -2.62567402       1.58894502 
Au      -0.90096731      -2.62567402      -1.58894502 
Au      -0.90096730       2.62567402      -1.58894501 
Au       0.90096730       2.62567402       1.58894501 
Au       1.18844215       1.31990782      -0.65425754 
Au      -1.18844215       1.31990782       0.65425754 
Au      -1.18844215      -1.31990782       0.65425754 
Au       1.18844215      -1.31990782      -0.65425754 
Au       2.88554644      -1.33683880       2.71513794 
Au      -2.88554644      -1.33683880      -2.71513794 
Au      -2.88554643       1.33683881      -2.71513793 
Au       2.88554643       1.33683881       2.71513793 
