20
-1555.485703
Au       1.28725326       0.05465423       2.75368050 
Au      -1.28716308       0.05462583      -2.75512752 
Au      -0.00023398       2.81821129       0.00018478 
Au      -0.00020885      -2.60383730       0.00016688 
Au      -0.63162190       1.77922974       2.35240855 
Au       0.63150305       1.77885010      -2.35190341 
Au       1.01664478      -0.80394447      -1.74196642 
Au      -1.01703089      -0.80383063       1.74226499 
Au       1.83205687       2.51830091       1.85032884 
Au      -1.83202744       2.51760609      -1.85026636 
Au      -0.89299135      -2.54313142      -2.45669438 
Au       0.89325618      -2.54313535       2.45664459 
Au      -2.22789301       1.16283043       0.37974055 
Au       2.22719371       1.16194013      -0.37868788 
Au       2.29890426      -1.33009638       0.54221067 
Au      -2.29793946      -1.32899091      -0.54291079 
Au      -3.68636143       0.66405193      -1.77174930 
Au       3.68638732       0.66476850       1.77215505 
Au       3.28937909      -1.60906354       2.97616619 
Au      -3.28910712      -1.60903918      -2.97664554 
