20
-1553.843969
Au      -0.12225006      -3.44537737      -0.19046442 
Au       0.11299797       3.44520095       0.19611544 
Au      -0.43161123       1.05358553      -0.65466966 
Au       0.39448834      -1.05360834       0.67782843 
Au       2.27358269       1.68005247       3.72907882 
Au      -2.57487009       2.88945278      -4.20798321 
Au      -2.32167350      -1.67947989      -3.69925684 
Au       2.62822685      -2.88974818       4.17521230 
Au      -0.67489836       5.59339727      -1.16762538 
Au       0.66817017       5.84636560       1.04260182 
Au       0.74303148      -5.59357234       1.12515712 
Au      -0.63051087      -5.84612571      -1.06633661 
Au      -1.51148945      -3.80572912      -2.42652293 
Au       1.25445100      -3.17736075       2.00233514 
Au       1.49045673       3.80595683       2.43887656 
Au      -1.23560515       3.17715578      -2.01389225 
Au      -1.80979181       0.75396684      -2.89738532 
Au       0.92170118       1.35874946       1.53692301 
Au       1.78829894      -0.75402092       2.91157000 
Au      -0.96270484      -1.35886087      -1.51156202 
