20
-1549.754092
Au      -0.00001893       3.88030700      -0.00001994 
Au      -0.00001893      -3.88030701      -0.00001994 
Au       0.00000282       1.28795675       0.00000087 
Au       0.00000282      -1.28795675       0.00000087 
Au      -1.74178101      -3.38052412      -3.91133339 
Au       1.74177969      -3.38052819       3.91133558 
Au       1.74177969       3.38052819       3.91133558 
Au      -1.74178101       3.38052413      -3.91133339 
Au       1.24830618      -1.29197296       2.28659536 
Au      -1.24830490      -1.29197169      -2.28659214 
Au      -1.24830489       1.29197169      -2.28659214 
Au       1.24830618       1.29197296       2.28659536 
Au       3.24238426      -1.28805479       3.99306304 
Au      -3.24238012      -1.28806190      -3.99305717 
Au      -3.24238012       1.28806190      -3.99305717 
Au       3.24238426       1.28805479       3.99306304 
Au      -0.39704042       3.30259276       2.46663582 
Au       0.39705242       3.30258810      -2.46662803 
Au       0.39705242      -3.30258809      -2.46662803 
Au      -0.39704042      -3.30259276       2.46663581 
