20
-1552.661507
Au      -0.00000075      -1.31846699      -0.00000066 
Au      -0.00000080       1.31846699      -0.00000072 
Au      -0.00000006      -5.04585156      -0.00000003 
Au      -0.00000000       5.04585156      -0.00000003 
Au       0.24168044      -1.29430063      -3.64283312 
Au      -0.24168004      -1.29430133       3.64283293 
Au      -0.24168011       1.29430136       3.64283298 
Au       0.24168035       1.29430060      -3.64283306 
Au       1.83465236       3.18991753       0.09700141 
Au      -1.83465226       3.18991704      -0.09700172 
Au      -1.83465218      -3.18991685      -0.09700172 
Au       1.83465243      -3.18991771       0.09700143 
Au      -1.74486394      -1.33579847      -1.94243505 
Au       1.74486466      -1.33579838       1.94243605 
Au       1.74486441       1.33579818       1.94243584 
Au      -1.74486419       1.33579868      -1.94243524 
Au      -0.11734832      -3.25174442       1.92065554 
Au       0.11734821      -3.25174466      -1.92065512 
Au       0.11734817       3.25174472      -1.92065518 
Au      -0.11734835       3.25174436       1.92065548 
