20
-1549.649734
Au      -3.21687726      -3.46062871       1.30588248 
Au       3.21687733      -3.46062882      -1.30588239 
Au       3.21687735       3.46062885      -1.30588244 
Au      -3.21687742       3.46062896       1.30588235 
Au      -4.53403749      -1.29934415       1.89635622 
Au       4.53403779      -1.29934440      -1.89635617 
Au       4.53403783       1.29934443      -1.89635618 
Au      -4.53403813       1.29934468       1.89635613 
Au       0.64306417      -1.30255717       2.11116682 
Au      -0.64306387      -1.30255690      -2.11116677 
Au      -0.64306383       1.30255688      -2.11116679 
Au       0.64306353       1.30255661       2.11116673 
Au      -0.62654033       3.37562554       1.14287581 
Au       0.62654027       3.37562561      -1.14287568 
Au       0.62654024      -3.37562569      -1.14287585 
Au      -0.62654018      -3.37562576       1.14287572 
Au       1.94736563       1.31503313      -2.10685449 
Au      -1.94736594       1.31503313       2.10685447 
Au      -1.94736528      -1.31503311       2.10685449 
Au       1.94736559      -1.31503311      -2.10685447 
