20
-1553.285688
Au      -0.93496974      -1.28108936      -0.87083681 
Au       0.93496974      -1.28108936       0.87083681 
Au       0.93496974       1.28108936       0.87083681 
Au      -0.93496974       1.28108936      -0.87083681 
Au       0.24058734      -3.36181917       2.26276600 
Au      -0.24058734      -3.36181917      -2.26276600 
Au      -0.24058734       3.36181917      -2.26276600 
Au       0.24058734       3.36181917       2.26276600 
Au      -1.45221455       1.30298415      -3.43038271 
Au       1.45221455       1.30298415       3.43038271 
Au       1.45221455      -1.30298415       3.43038271 
Au      -1.45221455      -1.30298415      -3.43038271 
Au       2.78312840       2.87185107       1.82321551 
Au      -2.78312840       2.87185107      -1.82321551 
Au      -2.78312840      -2.87185107      -1.82321551 
Au       2.78312840      -2.87185107       1.82321551 
Au      -1.30868231       3.66329043       0.18047803 
Au       1.30868231       3.66329043      -0.18047803 
Au       1.30868231      -3.66329043      -0.18047803 
Au      -1.30868231      -3.66329043       0.18047803 
