20
-1548.210784
Au      -0.00000000       0.00000000       1.94613415 
Au      -0.00000000       0.00000000      -1.94613415 
Au      -0.00000000       0.00000000      -4.51314245 
Au       0.00000000       0.00000000       4.51314245 
Au       1.63330017       0.82387924       0.00000000 
Au      -1.63330017      -0.82387924      -0.00000000 
Au      -0.82387937       1.63330014      -0.00000000 
Au       0.82387937      -1.63330014       0.00000000 
Au      -3.58232462      -2.51631904       0.00000000 
Au       3.58232462       2.51631904       0.00000000 
Au       2.51631903      -3.58232458       0.00000000 
Au      -2.51631903       3.58232458      -0.00000000 
Au      -3.45244898       5.97169769      -0.00000000 
Au       3.45244898      -5.97169769       0.00000000 
Au      -5.97169768      -3.45244897      -0.00000000 
Au       5.97169768       3.45244897      -0.00000000 
Au      -1.11372900      -3.34750913      -0.00000000 
Au       1.11372900       3.34750913       0.00000000 
Au       3.34750907      -1.11372899      -0.00000000 
Au      -3.34750907       1.11372899       0.00000000 
