20
-1548.210815
Au       0.00000000      -0.00000000       1.94581264 
Au       0.00000000      -0.00000000      -1.94581264 
Au       0.00000000       0.00000000       4.51285991 
Au      -0.00000000      -0.00000000      -4.51285991 
Au      -0.50305902      -3.49201572      -0.00000000 
Au       0.50305902       3.49201572       0.00000000 
Au       3.49194781      -0.50329652       0.00000000 
Au      -3.49194781       0.50329652      -0.00000000 
Au      -5.26056850      -4.46432014       0.00000000 
Au       5.26056850       4.46432014      -0.00000000 
Au       4.46404987      -5.26051357      -0.00000000 
Au      -4.46404987       5.26051357       0.00000000 
Au      -1.46188334      -1.10030635      -0.00000000 
Au       1.46188334       1.10030635       0.00000000 
Au       1.10009117      -1.46158957      -0.00000000 
Au      -1.10009117       1.46158957       0.00000000 
Au      -3.11083275       3.08018683       0.00000000 
Au       3.11083275      -3.08018683       0.00000000 
Au      -3.07995514      -3.11153594      -0.00000000 
Au       3.07995514       3.11153594       0.00000000 
