20
-1550.924357
Au       0.00000000       0.00000000      -4.50111316 
Au      -0.00000000       0.00000000       4.50111316 
Au       0.00000000       0.00000000       1.93418935 
Au       0.00000000      -0.00000000      -1.93418935 
Au      -3.67466294      -3.88756874       0.00000000 
Au       3.67466294       3.88756874      -0.00000000 
Au       3.88756874      -3.67466294       0.00000000 
Au      -3.88756874       3.67466294      -0.00000000 
Au      -4.25639009       1.11507646      -0.00000000 
Au       4.25639009      -1.11507646       0.00000000 
Au      -1.11507646      -4.25639009      -0.00000000 
Au       1.11507646       4.25639009       0.00000000 
Au       3.34999922       1.31888643      -0.00000000 
Au      -3.34999922      -1.31888643      -0.00000000 
Au      -1.31888643       3.34999922      -0.00000000 
Au       1.31888643      -3.34999922       0.00000000 
Au       0.71770544       1.69626295      -0.00000000 
Au      -0.71770544      -1.69626295       0.00000000 
Au      -1.69626295       0.71770544      -0.00000000 
Au       1.69626295      -0.71770544      -0.00000000 
