20
-1549.455719
Au      -0.00000000      -0.00000000      -2.27365629 
Au       0.00000000       0.00000000       2.27365628 
Au      -0.00000000      -0.00000000      -4.84785380 
Au       0.00000000       0.00000000       4.84785380 
Au       3.56928256       0.41363001       0.00000000 
Au      -3.56928256      -0.41363001       0.00000000 
Au       0.53090059       3.45545165       0.00000000 
Au      -0.53090059      -3.45545165       0.00000000 
Au       1.45155676      -1.72689362       0.00000000 
Au      -1.45155676       1.72689362       0.00000000 
Au       0.98242012       0.83813296      -0.00000000 
Au      -0.98242012      -0.83813296      -0.00000000 
Au      -2.57731222      -2.43618926      -1.31121378 
Au       2.57731222       2.43618926      -1.31121378 
Au       3.71163977      -1.81621343      -1.31543045 
Au      -3.71163977       1.81621343      -1.31543045 
Au       2.57731222       2.43618926       1.31121378 
Au      -2.57731222      -2.43618926       1.31121378 
Au      -3.71163977       1.81621343       1.31543045 
Au       3.71163977      -1.81621343       1.31543045 
