20
-1549.455723
Au       0.00069028       0.00089913      -4.84726853 
Au      -0.00068891      -0.00090071       4.84728017 
Au       0.00319798       0.00374294      -2.27328952 
Au      -0.00318664      -0.00375048       2.27330176 
Au       0.76802139       1.03884771       0.00287572 
Au      -0.76802284      -1.03884574      -0.00286322 
Au      -1.80372851       1.35422943       0.00009158 
Au       1.80372559      -1.35422693      -0.00010463 
Au       3.38442270       1.21639991      -0.00021000 
Au      -3.38442492      -1.21639896       0.00020753 
Au      -0.26561690       3.48718161      -0.00008399 
Au       0.26561584      -3.48717978       0.00008221 
Au      -1.95627152      -2.95676307       1.31282301 
Au       1.95897967       2.96099009       1.30948826 
Au       4.02351261      -0.92432702       1.31545041 
Au      -4.02360731       0.92444417       1.31575744 
Au       1.95626436       2.95675469      -1.31283006 
Au      -1.95897481      -2.96098020      -1.30949570 
Au      -4.02351934       0.92432598      -1.31545251 
Au       4.02361129      -0.92444277      -1.31575994 
