20
-1551.464725
Au      -0.00000001       0.00000000       4.87645661 
Au      -0.00000001      -0.00000000      -4.87645661 
Au      -0.00000001      -0.00000000      -2.28396453 
Au      -0.00000001      -0.00000001       2.28396453 
Au       0.75915667      -1.05351076       0.00000000 
Au      -0.75915666       1.05351076       0.00000000 
Au       1.96427022       1.23847560       0.00000001 
Au      -1.96427020      -1.23847560      -0.00000001 
Au      -0.41683080      -3.40330086      -0.00000000 
Au       0.41683081       3.40330086       0.00000000 
Au       3.43045983      -1.11112022      -0.00000000 
Au      -3.43045983       1.11112022       0.00000000 
Au       1.91252473      -3.00181255      -1.29959636 
Au      -1.91252472       3.00181255      -1.29959636 
Au       2.49399897      -0.68224993      -2.35633759 
Au      -2.49399898       0.68224993      -2.35633759 
Au      -1.91252473       3.00181255       1.29959636 
Au       1.91252473      -3.00181255       1.29959636 
Au      -2.49399898       0.68224993       2.35633759 
Au       2.49399897      -0.68224992       2.35633758 
