20
-1551.113167
Au       5.19391639       1.33861265       0.00000000 
Au      -5.19391639      -1.33861265      -0.00000000 
Au      -1.33884192       5.19417077      -0.00000000 
Au       1.33884192      -5.19417077      -0.00000000 
Au       4.68729915      -3.64090232       0.00000000 
Au      -4.68729915       3.64090232      -0.00000000 
Au       3.64038472       4.68751471       0.00000000 
Au      -3.64038472      -4.68751471       0.00000000 
Au       1.07883084       4.25723201       0.00000000 
Au      -1.07883084      -4.25723201      -0.00000000 
Au      -4.25731217       1.07928503       0.00000000 
Au       4.25731217      -1.07928503      -0.00000000 
Au      -0.18332203      -1.80775935       0.00000000 
Au       0.18332203       1.80775935      -0.00000000 
Au       1.80797466      -0.18326937      -0.00000000 
Au      -1.80797466       0.18326937      -0.00000000 
Au       2.23297685      -2.76234029       0.00000000 
Au      -2.23297685       2.76234029      -0.00000000 
Au       2.76223472       2.23317038      -0.00000000 
Au      -2.76223472      -2.23317038       0.00000000 
