20
-1552.645556
Au      -0.00000000      -0.00000000      -1.33081858 
Au       0.00000000      -0.00000000       1.33081858 
Au       0.00000000      -0.00000000       5.04792169 
Au       0.00000000       0.00000000      -5.04792169 
Au      -0.11931311       1.85202159      -3.19009973 
Au       0.11931311      -1.85202159      -3.19009973 
Au      -1.90198090      -0.12136790      -3.23729851 
Au       1.90198090       0.12136790      -3.23729851 
Au       0.11931311      -1.85202159       3.19009973 
Au      -0.11931311       1.85202159       3.19009973 
Au       1.90198090       0.12136790       3.23729851 
Au      -1.90198090      -0.12136790       3.23729851 
Au       2.01366478      -1.70963007       1.31300113 
Au      -2.01366479       1.70963007       1.31300113 
Au       1.77742135       1.95175612       1.31361595 
Au      -1.77742135      -1.95175612       1.31361595 
Au      -2.01366479       1.70963007      -1.31300113 
Au       2.01366478      -1.70963007      -1.31300113 
Au      -1.77742135      -1.95175612      -1.31361595 
Au       1.77742135       1.95175612      -1.31361595 
