20
-1553.379199
Au      -2.24983203       2.17403571      -0.00000000 
Au       2.24985515      -2.17403439       0.00000000 
Au      -3.85218826      -1.92648991      -0.00000005 
Au       3.85218789       1.92647940       0.00000005 
Au      -0.03650869       3.57635417      -0.00000004 
Au       0.03649592      -3.57636658       0.00000004 
Au      -4.39256277       0.61741593       0.00000002 
Au       4.39255445      -0.61740819      -0.00000002 
Au      -2.50234177      -4.14127540       0.00000002 
Au       2.50234918       4.14128128      -0.00000002 
Au       4.63789990      -3.20131099      -0.00000002 
Au      -4.63790843       3.20131223       0.00000002 
Au       0.12700472      -1.31480494       1.31791960 
Au      -0.12700972       1.31480945       1.31791407 
Au       2.27424202       0.21142792       1.31938706 
Au      -2.27423714      -0.21142918       1.31939038 
Au      -0.12700979       1.31480951      -1.31791424 
Au       0.12700464      -1.31480487      -1.31791942 
Au      -2.27423721      -0.21142911      -1.31939049 
Au       2.27424195       0.21142799      -1.31938696 
