20
-1554.689836
Au      -0.54198313       1.91687141      -0.00000000 
Au       0.54198313      -1.91687141      -0.00000000 
Au      -1.92126931      -0.54343729      -0.00000000 
Au       1.92126931       0.54343729      -0.00000000 
Au      -1.56399175      -2.79817943       1.33144442 
Au       1.56399175       2.79817943       1.33144442 
Au       2.79774864      -1.56455450       1.33147051 
Au      -2.79774864       1.56455450       1.33147051 
Au       1.56399175       2.79817943      -1.33144442 
Au      -1.56399175      -2.79817943      -1.33144442 
Au      -2.79774864       1.56455450      -1.33147051 
Au       2.79774864      -1.56455450      -1.33147051 
Au      -1.81448559      -0.51320498       2.63424118 
Au       1.81448559       0.51320498       2.63424118 
Au       0.51353761      -1.81571081       2.63471506 
Au      -0.51353761       1.81571081       2.63471506 
Au       1.81448559       0.51320498      -2.63424118 
Au      -1.81448559      -0.51320498      -2.63424118 
Au      -0.51353761       1.81571081      -2.63471506 
Au       0.51353761      -1.81571081      -2.63471506 
