20
-1547.718682
Au       0.00000000       0.00000000      -1.36161661 
Au       0.00000000       0.00000000       1.36161661 
Au       0.00000000       0.00000000      -4.05738057 
Au       0.00000000       0.00000000       4.05738057 
Au       1.81573924       1.81436614      -3.88124054 
Au      -1.81573924      -1.81436614      -3.88124054 
Au      -1.81579025       1.81441016      -3.88118246 
Au       1.81579025      -1.81441016      -3.88118246 
Au      -1.81579025       1.81441016       3.88118246 
Au       1.81579025      -1.81441016       3.88118246 
Au       1.81573924       1.81436614       3.88124054 
Au      -1.81573924      -1.81436614       3.88124054 
Au       1.85462635       1.85459217      -1.29244000 
Au      -1.85462635      -1.85459217      -1.29244000 
Au      -1.85471093       1.85467841      -1.29242702 
Au       1.85471093      -1.85467841      -1.29242702 
Au      -1.85471093       1.85467841       1.29242702 
Au       1.85471093      -1.85467841       1.29242702 
Au       1.85462635       1.85459217       1.29244000 
Au      -1.85462635      -1.85459217       1.29244000 
