20
-1553.639651
Au      -1.63361267       1.99998325      -0.00001468 
Au       1.63361657      -1.99998075      -0.00001952 
Au      -1.99967095      -1.63405446      -0.00002079 
Au       1.99967244       1.63405485      -0.00001352 
Au       2.22670428      -2.72691088       2.45050225 
Au      -2.22668692       2.72690988       2.45049761 
Au       2.72688052       2.22675488       2.45050291 
Au      -2.72685628      -2.22673987       2.45049415 
Au      -2.22664233       2.72685326      -2.45064875 
Au       2.22665699      -2.72684339      -2.45064811 
Au      -2.72678171      -2.22666997      -2.45064501 
Au       2.72681695       2.22669905      -2.45066182 
Au       0.18692059       1.85197135       1.98172789 
Au      -0.18697327      -1.85196040       1.98172850 
Au      -1.85178916       0.18695203       1.98194145 
Au       1.85179764      -0.18697833       1.98194048 
Au      -0.18701971      -1.85196367      -1.98156378 
Au       0.18696041       1.85198138      -1.98156340 
Au       1.85181982      -0.18695379      -1.98176740 
Au      -1.85181323       0.18689561      -1.98176847 
