20
-1550.489205
Au       4.37007073      -2.08165851      -0.00000000 
Au      -4.37007099       2.08165872      -0.00000000 
Au       2.19567160       4.63033972      -0.00000000 
Au      -2.19567157      -4.63033992       0.00000000 
Au       2.12720781      -2.42326337       1.30693293 
Au      -2.12720767       2.42326347       1.30693299 
Au       2.59182790       2.40099462       1.29698483 
Au      -2.59182810      -2.40099418       1.29698492 
Au      -2.12720768       2.42326347      -1.30693299 
Au       2.12720781      -2.42326337      -1.30693293 
Au      -2.59182810      -2.40099418      -1.29698492 
Au       2.59182789       2.40099463      -1.29698483 
Au      -0.23756092      -3.48204923      -1.29496880 
Au       0.23756101       3.48204917      -1.29496881 
Au       3.31350743      -0.08246975      -1.30702965 
Au      -3.31350732       0.08246925      -1.30702976 
Au       0.23756100       3.48204917       1.29496882 
Au      -0.23756092      -3.48204923       1.29496880 
Au      -3.31350732       0.08246925       1.30702976 
Au       3.31350743      -0.08246974       1.30702965 
