20
-1547.928309
Au      -0.00000002       0.00000000      -1.28639702 
Au       0.00000001       0.00000001       1.28639405 
Au      -0.00000003      -0.00000003       5.09636771 
Au       0.00000012      -0.00000008      -5.09636608 
Au       1.26617355       1.26617355       3.17347340 
Au      -1.26617355      -1.26617355       3.17347343 
Au       1.26617211      -1.26617209      -3.17347201 
Au      -1.26617208       1.26617210      -3.17347187 
Au       1.34885240       1.34885240      -3.10787243 
Au      -1.34885241      -1.34885241      -3.10787248 
Au       1.34885575      -1.34885575       3.10787253 
Au      -1.34885575       1.34885575       3.10787253 
Au      -3.14066438      -3.14066438      -3.53185575 
Au       3.14066439       3.14066439      -3.53185581 
Au      -3.14066419       3.14066419       3.53185564 
Au       3.14066419      -3.14066419       3.53185563 
Au       1.78991368       1.78991368       5.64527674 
Au      -1.78991366      -1.78991366       5.64527670 
Au       1.78991378      -1.78991382      -5.64527741 
Au      -1.78991391       1.78991387      -5.64527752 
