20
-1554.229044
Au      -1.04679528       1.04603024      -2.61227203 
Au      -0.33005045      -0.18116954       1.44014592 
Au       0.69809190      -0.65879231      -3.73305679 
Au       0.81797242       0.29922681       5.50780222 
Au      -1.32988630      -1.17739537       5.63285686 
Au       1.63409270       0.58312058       3.05798393 
Au       0.07205894       3.41097322      -2.34640959 
Au       0.60946465      -3.01147304      -2.55410249 
Au       0.66977373       1.88425019      -4.40917144 
Au      -0.74447644      -2.60871776      -4.77146302 
Au       0.28730319      -1.60454377       3.64652342 
Au      -1.10625639       0.68238113       3.78884211 
Au      -1.57365432      -1.53035508      -2.55481556 
Au       1.58921677       1.24560014      -2.04889074 
Au      -2.20814718       1.62058203       1.59782300 
Au       1.78587203      -1.66788595       1.50239882 
Au       2.04992901       0.72756409       0.47372645 
Au      -2.10686247      -0.03222223      -0.46631911 
Au       0.49273668      -0.92346199      -0.93956951 
Au      -0.26038319       1.89628862      -0.21203245 
