20
-1553.644068
Au       0.53389389       0.99259131      -1.62931684 
Au      -0.09669836       0.05434747       0.93944028 
Au       0.59519508      -0.02677905      -4.05783331 
Au       0.00304985      -0.05419691       3.98455121 
Au      -1.91233951      -1.41265000       5.08512658 
Au       2.15291884       1.00661891       4.99025894 
Au      -1.50445633       1.35101102      -3.24025005 
Au       1.68513307      -2.24653213      -3.23777822 
Au       1.58500260       1.42357379       2.49543530 
Au      -1.70464126      -1.41666722       2.50614692 
Au       1.45166400      -1.45718531      -0.69153966 
Au      -1.81791924       1.65543624      -0.52714948 
Au       2.83027788      -0.02606631      -2.41135174 
Au      -3.59502866       0.39028925      -1.98139724 
Au       0.65632685      -3.83061146      -1.43733299 
Au      -0.47214291       3.43693910      -1.86482723 
Au       2.47697097       0.82994770       0.10698605 
Au      -2.61239392      -0.74705151       0.15319923 
Au      -0.71682517      -2.52980353       0.35726303 
Au       0.46201231       2.60678863       0.46036921 
