20
-1552.169721
Au       0.00000040       0.00000044       4.06811998 
Au      -0.00000023       0.00000088      -3.72837443 
Au      -0.00000007       0.00000003      -1.13239071 
Au       0.00000124      -0.00000054       1.44808891 
Au      -0.24994981      -2.30390055      -2.47637381 
Au       0.24994982       2.30390206      -2.47637300 
Au      -0.17661966       2.27677330       2.75585480 
Au       0.17661865      -2.27677392       2.75585420 
Au      -2.20611118       0.51420944       2.76700663 
Au       2.20611095      -0.51421004       2.76700644 
Au      -2.22129983      -0.59278819      -2.43184635 
Au       2.22130106       0.59278921      -2.43184588 
Au      -2.31776001      -0.22223940       0.24006648 
Au       2.31775981       0.22223852       0.24006720 
Au       0.39755327       2.23802070       0.16679292 
Au      -0.39755186      -2.23802109       0.16679248 
Au      -4.46231666      -0.12781912      -1.23889157 
Au       4.46231648       0.12781866      -1.23889244 
Au       0.05766508       4.78255877      -0.11033263 
Au      -0.05766746      -4.78255916      -0.11032924 
