20
-1551.936736
Au       0.00000000      -0.00000000       1.72599718 
Au       0.00000061       0.00000061      -1.93683493 
Au      -0.00000000      -0.00000000       6.22364123 
Au      -0.00000079      -0.00000079      -6.43679954 
Au       0.92999736       0.93048006      -4.21986570 
Au      -0.92999572      -0.93047841      -4.21987061 
Au       0.95213207      -0.95159700       4.00722950 
Au      -0.95213207       0.95159700       4.00722950 
Au      -1.86633652      -1.86472171      -2.00664170 
Au       1.86633530       1.86472049      -2.00664455 
Au      -1.88500485       1.88301779       1.74502060 
Au       1.88500487      -1.88301777       1.74502060 
Au      -1.94258830      -0.02282693      -0.14743912 
Au       1.94258826       0.02282672      -0.14743900 
Au       0.02354513       1.94271861      -0.14784642 
Au      -0.02354532      -1.94271864      -0.14784653 
Au      -4.10783964       1.25940661       0.48973947 
Au       4.10783960      -1.25940660       0.48973947 
Au      -1.26032572       4.10608075       0.49180527 
Au       1.26032573      -4.10608079       0.49180527 
