20
-1555.557674
Au      -0.88640984      -1.11116424       0.63567919 
Au       0.88640984       1.11116424       0.63567919 
Au      -1.38209990       1.43187292      -0.64996123 
Au       1.38209990      -1.43187292      -0.64996123 
Au      -0.83074925      -1.03362385      -2.04181092 
Au       0.83074925       1.03362385      -2.04181092 
Au      -1.38677063       1.27199187       1.99565780 
Au       1.38677063      -1.27199187       1.99565780 
Au      -3.13707452      -0.73083866       1.94568221 
Au       3.13707452       0.73083866       1.94568221 
Au      -3.70053569       1.73714690      -1.87317262 
Au       3.70053569      -1.73714690      -1.87317262 
Au      -0.90465555      -0.98081794       3.30906024 
Au       0.90465555       0.98081794       3.30906024 
Au      -1.57190062       1.15756723      -3.27454149 
Au       1.57190062      -1.15756723      -3.27454149 
Au      -3.09572430      -0.58985938      -0.76036054 
Au       3.09572430       0.58985938      -0.76036054 
Au      -3.71501598       1.52234058       0.71376736 
Au       3.71501598      -1.52234058       0.71376736 
