20
-1552.705406
Au      -1.36479303      -1.36479303      -2.37109962 
Au       1.36479303       1.36479303      -2.37109962 
Au      -1.36479303       1.36479303       2.37109964 
Au       1.36479304      -1.36479304       2.37109961 
Au       0.92625284       0.92625284       3.62062613 
Au      -0.92625284      -0.92625284       3.62062613 
Au       0.92625284      -0.92625284      -3.62062613 
Au      -0.92625284       0.92625284      -3.62062613 
Au      -2.49522452      -2.49522452      -0.32300617 
Au       2.49522452       2.49522452      -0.32300616 
Au      -2.49522466       2.49522466       0.32300613 
Au       2.49522439      -2.49522439       0.32300620 
Au      -0.91092627      -0.91092651       0.97596280 
Au       0.91092651       0.91092627       0.97596280 
Au      -0.91092638       0.91092638      -0.97596281 
Au       0.91092640      -0.91092640      -0.97596279 
Au       2.53449737       2.53449737       2.29680973 
Au      -2.53449737      -2.53449737       2.29680973 
Au       2.53449737      -2.53449737      -2.29680973 
Au      -2.53449737       2.53449737      -2.29680973 
