20
-1530.908363
Au      -0.00000000       0.00000000      -1.28843480 
Au       0.00000000      -0.00000000       1.28843480 
Au      -0.00000000       0.00000000       3.83418378 
Au       0.00000000      -0.00000000      -3.83418378 
Au       4.33496071       4.33496071       1.28805983 
Au      -4.33496071      -4.33496071       1.28805983 
Au      -4.33496071       4.33496071       1.28805983 
Au       4.33496071      -4.33496071       1.28805983 
Au      -4.33496071       4.33496071      -1.28805983 
Au       4.33496071      -4.33496071      -1.28805983 
Au       4.33496071       4.33496071      -1.28805982 
Au      -4.33496071      -4.33496071      -1.28805983 
Au       5.55057530       5.55057530      -3.15865445 
Au      -5.55057530      -5.55057530      -3.15865445 
Au      -5.55057530       5.55057530      -3.15865445 
Au       5.55057530      -5.55057530      -3.15865445 
Au      -5.55057530       5.55057530       3.15865445 
Au       5.55057530      -5.55057530       3.15865445 
Au       5.55057530       5.55057530       3.15865445 
Au      -5.55057530      -5.55057530       3.15865445 
