20
-1552.18403
Au      -0.00000000       0.00000000       4.65169061 
Au       0.00000000      -0.00000000      -4.65169061 
Au      -0.00000000       0.00000000      -2.04315150 
Au      -0.00000000      -0.00000000       2.04315150 
Au       1.32030922       1.32030922      -0.07741902 
Au      -1.32030922      -1.32030922      -0.07741902 
Au       1.32030922      -1.32030922       0.07741902 
Au      -1.32030922       1.32030922       0.07741902 
Au       3.65977087       0.00000000       0.00000000 
Au      -3.65977087      -0.00000000       0.00000000 
Au       0.00000000      -3.65977087      -0.00000000 
Au       0.00000000       3.65977087       0.00000000 
Au      -2.52159420       0.66999207      -2.22573213 
Au       2.52159420      -0.66999207      -2.22573213 
Au       0.66999207       2.52159420       2.22573213 
Au      -0.66999207      -2.52159420       2.22573213 
Au       2.52159420       0.66999207       2.22573213 
Au      -2.52159420      -0.66999207       2.22573213 
Au      -0.66999207       2.52159420      -2.22573213 
Au       0.66999207      -2.52159420      -2.22573213 
