20
-1553.463381
Au      -0.00000000       0.00000000       3.50075080 
Au       0.00000000      -0.00000000      -3.49694778 
Au      -0.00000000       0.00000000       6.07557695 
Au       0.00000000       0.00000000      -6.07178126 
Au      -2.30005139      -2.19215896       0.00094172 
Au       2.30005139       2.19215896       0.00094172 
Au      -2.10497360       2.38825639       0.00031488 
Au       2.10497360      -2.38825639       0.00031488 
Au      -4.34625000      -0.53651512      -0.00579904 
Au       4.34625000       0.53651512      -0.00579904 
Au       0.16133597       3.67815921       0.00273946 
Au      -0.16133597      -3.67815921       0.00273946 
Au      -0.04516613      -1.43057248      -1.32271608 
Au       0.04516613       1.43057248      -1.32271608 
Au      -2.20859908       0.09755747       1.35545492 
Au       2.20859908      -0.09755747       1.35545492 
Au      -0.04532467      -1.42865628       1.32514412 
Au       0.04532467       1.42865628       1.32514412 
Au       2.20601547      -0.09692587      -1.35987935 
Au      -2.20601547       0.09692587      -1.35987935 
