20
-1554.331682
Au       0.00000000      -0.00000000      -1.30467487 
Au       0.00000000      -0.00000000       1.30467487 
Au      -0.00000000       0.00000000      -3.91534620 
Au       0.00000000       0.00000000       3.91534620 
Au      -2.03235265      -2.03235265       1.72059351 
Au       2.03235265       2.03235265       1.72059351 
Au      -2.03235265       2.03235265      -1.72059351 
Au       2.03235265      -2.03235265      -1.72059351 
Au       2.32142658       0.00000000      -0.00000000 
Au      -2.32142658       0.00000000       0.00000000 
Au      -0.00000000      -2.32142658       0.00000000 
Au       0.00000000       2.32142658       0.00000000 
Au       0.41691383       2.27765791      -2.61770559 
Au      -0.41691383      -2.27765791      -2.61770559 
Au       2.27765791      -0.41691383       2.61770559 
Au      -2.27765791       0.41691383       2.61770559 
Au      -0.41691383       2.27765791       2.61770559 
Au       0.41691383      -2.27765791       2.61770559 
Au      -2.27765791      -0.41691383      -2.61770559 
Au       2.27765791       0.41691383      -2.61770559 
