20
-1549.638286
Au       0.00000000      -0.00000000       3.98780420 
Au       0.00000000      -0.00000000      -3.98780420 
Au       0.00000000      -0.00000000       1.40891101 
Au       0.00000000      -0.00000000      -1.40891101 
Au      -4.81813164      -0.00000000       0.00000000 
Au       4.81813164       0.00000000       0.00000000 
Au       0.00000000       4.81813167       0.00000000 
Au      -0.00000000      -4.81813167       0.00000000 
Au       2.19176041       0.00000000      -0.00000000 
Au      -2.19176041      -0.00000000      -0.00000000 
Au      -0.00000000      -2.19176043      -0.00000000 
Au       0.00000000       2.19176043      -0.00000000 
Au       3.54099584       1.71494068       1.45269963 
Au      -3.54099584      -1.71494068       1.45269963 
Au       1.71494068      -3.54099588      -1.45269962 
Au      -1.71494068       3.54099588      -1.45269962 
Au      -3.54099584       1.71494068      -1.45269963 
Au       3.54099584      -1.71494068      -1.45269963 
Au      -1.71494067      -3.54099588       1.45269962 
Au       1.71494067       3.54099588       1.45269962 
