20
-1553.275921
Au       3.88941348       2.71966351       0.78261731 
Au      -3.63242327      -2.72994597       0.54277236 
Au       3.18636101      -2.17403403      -0.51369178 
Au      -2.58997152       2.10787247      -0.80652660 
Au      -1.09803007      -2.44169527       0.02787973 
Au       1.72643313       2.47652716      -0.67265840 
Au      -0.43120025       1.19002923       0.38511667 
Au       1.14570749      -0.99877951       0.68606784 
Au      -0.10479785       0.04421589       2.78909578 
Au      -1.64661887      -0.75335564       4.71965957 
Au      -0.49357442      -0.54321082      -3.22256441 
Au      -1.51182266       1.44712969      -4.54301260 
Au       1.89823841       1.33271579       1.71034067 
Au      -2.13302222      -1.60540497       2.33459698 
Au       0.85581276      -2.13291451      -1.69846999 
Au      -0.33941267       1.88029552      -2.25657184 
Au      -2.71313345      -0.32923671       0.08787495 
Au       3.33297243       0.40899973      -0.31430299 
Au      -0.56868859       3.72991027      -0.45321701 
Au       1.22775713      -3.62878181       0.41499376 
