20
-1553.28887
Au       0.90868628       0.90868628      -3.62375328 
Au      -0.90868628      -0.90868628      -3.62375328 
Au       0.90868628      -0.90868628       3.62375328 
Au      -0.90868628       0.90868628       3.62375328 
Au       1.65142920       1.65142920      -1.27542507 
Au      -1.65142920      -1.65142920      -1.27542507 
Au       1.65142920      -1.65142920       1.27542507 
Au      -1.65142920       1.65142920       1.27542507 
Au       0.91777096       0.91777096       1.39990066 
Au      -0.91777096      -0.91777096       1.39990066 
Au       0.91777096      -0.91777096      -1.39990066 
Au      -0.91777096       0.91777096      -1.39990066 
Au      -2.70881585      -2.70881585       0.84201284 
Au       2.70881585       2.70881585       0.84201284 
Au      -2.70881585       2.70881585      -0.84201284 
Au       2.70881585      -2.70881585      -0.84201284 
Au      -3.18351815      -0.00000000      -0.00000000 
Au       3.18351815       0.00000000       0.00000000 
Au      -0.00000000       3.18351815      -0.00000000 
Au       0.00000000      -3.18351815      -0.00000000 
