20
-1547.417307
Au       0.92229686       0.92229686       2.26484000 
Au      -0.92229686      -0.92229686       2.26484000 
Au       0.92229686      -0.92229686      -2.26484000 
Au      -0.92229686       0.92229686      -2.26484000 
Au      -3.09311634      -3.09311634      -3.62434500 
Au       3.09311634       3.09311634      -3.62434500 
Au      -3.09311634       3.09311634       3.62434500 
Au       3.09311634      -3.09311634       3.62434500 
Au       1.61012521       1.61012521      -2.14525878 
Au      -1.61012521      -1.61012521      -2.14525878 
Au       1.61012521      -1.61012521       2.14525878 
Au      -1.61012521       1.61012521       2.14525878 
Au      -4.43596708      -0.00000000      -0.00000000 
Au       4.43596708       0.00000000      -0.00000000 
Au      -0.00000000       4.43596708       0.00000000 
Au       0.00000000      -4.43596708      -0.00000000 
Au      -1.85808194       0.00000000      -0.00000000 
Au       1.85808194       0.00000000       0.00000000 
Au       0.00000000       1.85808194       0.00000000 
Au      -0.00000000      -1.85808194      -0.00000000 
