20
-1553.543247
Au       2.39082564       2.38207401      -0.72905194 
Au      -2.39082566      -2.38207400      -0.72905189 
Au       2.63396528      -2.64486182       0.80700136 
Au      -2.63396533       2.64486175       0.80700137 
Au      -1.59182717      -1.58262509       1.66702078 
Au       1.59182718       1.58262509       1.66702077 
Au      -1.59832247       1.60649531      -2.46529892 
Au       1.59832247      -1.60649532      -2.46529888 
Au       0.94977440       0.94500286      -2.37361761 
Au      -0.94977437      -0.94500287      -2.37361771 
Au       0.96715988      -0.97234580       1.93928956 
Au      -0.96715986       0.97234579       1.93928956 
Au       4.08613206       1.20561529       0.87274189 
Au      -4.08613205      -1.20561524       0.87274190 
Au      -1.22333890      -4.07884497       0.87835194 
Au       1.22333889       4.07884497       0.87835192 
Au      -2.26181001       0.27603265      -0.29862875 
Au       2.26181006      -0.27603264      -0.29862873 
Au      -0.26584625       2.26361698      -0.29780828 
Au       0.26584624      -2.26361694      -0.29780831 
