20
-1553.021399
Au       0.00000000      -0.00000000      -3.85259862 
Au       0.00000000      -0.00000000       3.85259862 
Au      -0.00000000      -0.00000000       1.27951620 
Au       0.00000000      -0.00000000      -1.27951620 
Au       2.35056724      -0.43194409      -2.35607994 
Au      -2.35056724       0.43194409      -2.35607994 
Au      -0.47928471       2.26549486      -2.60005021 
Au       0.47928471      -2.26549486      -2.60005021 
Au      -2.35056723       0.43194409       2.35607994 
Au       2.35056723      -0.43194409       2.35607994 
Au      -0.47928470       2.26549486       2.60005021 
Au       0.47928470      -2.26549486       2.60005021 
Au       1.83543239      -4.20590466      -0.00000002 
Au      -1.83543239       4.20590466      -0.00000002 
Au       2.17155473       0.82814777       0.00000000 
Au      -2.17155473      -0.82814777       0.00000000 
Au       0.02733239      -2.32374819       0.00000000 
Au      -0.02733239       2.32374819       0.00000000 
Au      -2.62517121       1.73217631       0.00000000 
Au       2.62517121      -1.73217631       0.00000000 
