20
-1547.473149
Au      -2.52355455      -2.52355412       0.15281669 
Au       2.52355429       2.52355449       0.15281673 
Au      -2.52355436       2.52355442      -0.15281672 
Au       2.52355456      -2.52355410      -0.15281667 
Au       0.92201890       0.92201888       4.69977957 
Au      -0.92201887      -0.92201889       4.69977958 
Au       0.92201888      -0.92201889      -4.69977959 
Au      -0.92201890       0.92201888      -4.69977958 
Au      -1.40451792      -1.40451788       2.21860937 
Au       1.40451786       1.40451798       2.21860937 
Au      -1.40451786       1.40451797      -2.21860937 
Au       1.40451790      -1.40451788      -2.21860937 
Au       4.39589882      -0.00000086      -0.00000001 
Au      -4.39589880      -0.00000014       0.00000001 
Au       0.00000034      -4.39589926       0.00000000 
Au      -0.00000026       4.39589902       0.00000000 
Au      -1.83778802       0.00000020       0.00000004 
Au       1.83778803       0.00000023      -0.00000006 
Au      -0.00000003       1.83778836       0.00000000 
Au      -0.00000000      -1.83778842      -0.00000000 
