20
-1554.920954
Au       0.38090596       0.11225735       2.98749014 
Au      -0.48624865      -0.05306774      -3.39934177 
Au      -0.17752017       1.46557057      -1.11740879 
Au       1.59211070       0.26481378       0.41741893 
Au       0.80625715       2.22219343      -3.41135685 
Au      -0.14128056      -1.35522880      -1.15574187 
Au       2.79171184      -0.92772245       2.41237392 
Au      -1.22066948       0.01591636       0.84279775 
Au       0.14795397       2.26612736       1.38333514 
Au       0.59743579      -2.00925361       1.44085850 
Au      -2.39530413      -0.04047315      -1.55104070 
Au       1.90705072       0.11176442      -2.23487909 
Au      -1.81401331       2.18971181      -3.05053070 
Au       0.40473331      -3.83995964      -0.39939455 
Au       2.48583926       1.66875159       2.52542694 
Au      -1.62367056      -1.61079791       2.85095801 
Au       0.47229669       2.54023163       3.95682463 
Au      -1.81113293      -2.62646571       0.44873727 
Au      -4.24569999       1.65018145      -2.28432847 
Au       2.32924438      -2.04455074      -0.66219846 
