20
-1553.387938
Au       2.63424945       2.63407473       0.02620600 
Au      -2.63424945      -2.63407473       0.02620600 
Au       2.63009162      -2.63018033      -0.01846768 
Au      -2.63009162       2.63018033      -0.01846768 
Au      -0.91333542      -0.91331472       0.92839714 
Au       0.91333542       0.91331472       0.92839714 
Au      -0.91382522       0.91388624      -0.93960031 
Au       0.91382522      -0.91388624      -0.93960031 
Au       3.31249419       0.00032151      -0.00101233 
Au      -3.31249419      -0.00032151      -0.00101233 
Au      -0.00047445      -3.31243795      -0.00109389 
Au       0.00047445       3.31243795      -0.00109389 
Au      -1.29318297      -3.12760895       2.27225624 
Au       1.29318297       3.12760895       2.27225624 
Au      -3.13598520       1.30153156      -2.26942370 
Au       3.13598520      -1.30153156      -2.26942370 
Au       1.30150903      -3.13602336      -2.26950269 
Au      -1.30150903       3.13602336      -2.26950269 
Au       3.12766046       1.29313506       2.27224122 
Au      -3.12766046      -1.29313506       2.27224122 
