20
-1552.55817
Au      -0.91643009      -0.91643009      -2.30635969 
Au       0.91643009       0.91643009      -2.30635969 
Au      -0.91643009       0.91643009       2.30635969 
Au       0.91643009      -0.91643009       2.30635969 
Au       1.90714944       0.00000000      -0.00000000 
Au      -1.90714944      -0.00000000       0.00000000 
Au      -0.00000000      -1.90714944       0.00000000 
Au      -0.00000000       1.90714944       0.00000000 
Au      -4.62676346       0.00000000      -0.00000000 
Au       4.62676346       0.00000000       0.00000000 
Au      -0.00000000       4.62676346       0.00000000 
Au       0.00000000      -4.62676346       0.00000000 
Au       1.55028856      -3.37633286       1.64368602 
Au      -1.55028856       3.37633286       1.64368602 
Au      -3.37633286      -1.55028856      -1.64368602 
Au       3.37633286       1.55028856      -1.64368602 
Au      -1.55028856      -3.37633286      -1.64368602 
Au       1.55028856       3.37633286      -1.64368602 
Au       3.37633286      -1.55028856       1.64368602 
Au      -3.37633286       1.55028856       1.64368602 
