20
-1552.565967
Au       0.91726798       0.91726798      -2.28593472 
Au      -0.91726798      -0.91726798      -2.28593472 
Au       0.91726798      -0.91726798       2.28593472 
Au      -0.91726798       0.91726798       2.28593472 
Au      -4.64232749      -0.00000000      -0.00000000 
Au       4.64232749      -0.00000000       0.00000000 
Au      -0.00000000       4.64232749       0.00000000 
Au       0.00000000      -4.64232749       0.00000000 
Au      -1.93936065       0.00000000      -0.00000000 
Au       1.93936065       0.00000000       0.00000000 
Au      -0.00000000       1.93936065       0.00000000 
Au       0.00000000      -1.93936065      -0.00000000 
Au      -3.38335628       1.55679217       1.63611801 
Au       3.38335628      -1.55679217       1.63611801 
Au       1.55679217       3.38335628      -1.63611801 
Au      -1.55679217      -3.38335628      -1.63611801 
Au       3.38335627       1.55679217      -1.63611801 
Au      -3.38335628      -1.55679217      -1.63611801 
Au      -1.55679217       3.38335628       1.63611801 
Au       1.55679217      -3.38335628       1.63611801 
