20
-1548.082634
Au      -4.42204098      -0.00000015       1.82161246 
Au       4.42204094      -0.00000013       1.82161160 
Au       0.00000011      -4.42204100       1.82161126 
Au       0.00000008       4.42204107       1.82161256 
Au      -3.58559642       0.00000096      -0.64986451 
Au       3.58559568       0.00000281      -0.64986495 
Au      -0.00000023      -3.58559548      -0.64986515 
Au      -0.00000227       3.58559658      -0.64986447 
Au       1.86577418       0.00000011       1.40883800 
Au      -1.86577437      -0.00000008       1.40883797 
Au      -0.00000010       1.86577443       1.40883799 
Au       0.00000008      -1.86577415       1.40883804 
Au      -3.01210947      -3.01211444      -1.72010509 
Au       3.01211549       3.01210856      -1.72010514 
Au       3.01211013      -3.01211359      -1.72010499 
Au      -3.01211145       3.01211250      -1.72010507 
Au      -1.30976019      -1.30975950      -0.86048013 
Au       1.30975862       1.30976100      -0.86048010 
Au       1.30976024      -1.30975903      -0.86048015 
Au      -1.30976007       1.30975952      -0.86048014 
