20
-1550.5688
Au      -1.82040938       0.00000235      -0.00001237 
Au       1.82040938      -0.00000235      -0.00001237 
Au      -0.00000153       1.82103801      -0.00001294 
Au       0.00000153      -1.82103801      -0.00001294 
Au       1.56984693       3.38947766      -1.40486093 
Au      -1.56984693      -3.38947766      -1.40486093 
Au       3.38921443      -1.56420760       1.41051537 
Au      -3.38921443       1.56420760       1.41051537 
Au      -1.56982290       3.38947714       1.40485528 
Au       1.56982290      -3.38947714       1.40485528 
Au      -3.38921427      -1.56423247      -1.41052165 
Au       3.38921427       1.56423247      -1.41052165 
Au      -0.90111762       4.06176926      -1.01295461 
Au       0.90111762      -4.06176926      -1.01295461 
Au       4.06052019       0.90544069       1.01021038 
Au      -4.06052019      -0.90544069       1.01021038 
Au       0.90112911       4.06174142       1.01297288 
Au      -0.90112911      -4.06174142       1.01297288 
Au      -4.06054789       0.90543003      -1.01019141 
Au       4.06054789      -0.90543003      -1.01019141 
