20
-1556.299794
Au      -0.09236237      -0.10478363       0.01134149 
Au      -0.26752176      -0.17680927      -2.59747255 
Au       0.55531607       2.14497766      -1.44761385 
Au      -2.49983295      -1.05068287      -1.26234172 
Au       1.92148761      -1.33568072      -1.38968056 
Au       2.71133311       3.61817579      -1.34934920 
Au      -4.43478261       0.70041653      -1.33544966 
Au       1.78047488      -3.95315584      -1.47594820 
Au       1.82427892       2.45107090       0.83699281 
Au      -2.97120250       0.43343532       0.83285731 
Au       1.11263385      -2.68885452       0.73250597 
Au      -0.42109924      -2.56086511      -1.36598040 
Au       2.93178470       1.03845824      -1.08538804 
Au      -1.95244174       1.52020703      -1.33022776 
Au       0.52419091      -1.38707208       2.88804037 
Au       0.88506123       1.19571894       2.90591571 
Au      -1.52185384       0.20776187       2.95579571 
Au      -0.85743369       2.16780025       1.06658244 
Au      -1.52756164      -1.93673387       1.15915008 
Au       2.29953106      -0.28338463       1.14051007 
