20
-1552.908974
Au      -0.00000939       0.00003044       0.26459156 
Au      -0.00000007       0.00000037      -2.48571398 
Au      -1.27880873      -2.29512287       0.24912049 
Au       2.62703584       0.04008094       0.24912237 
Au      -1.34822227       2.25502769       0.24912621 
Au       1.51330751       0.03203574      -4.68789484 
Au      -0.78439831       1.29454536      -4.68789296 
Au      -0.72890961      -1.32658076      -4.68789483 
Au      -2.74482819      -0.04093710       3.73933268 
Au       1.40786503      -2.35660237       3.73931124 
Au       1.33696912       2.39758939       3.73935967 
Au      -2.45347976      -0.03685321       1.13765965 
Au       1.25867111      -2.10635805       1.13768194 
Au       1.19481806       2.14320958       1.13763586 
Au       2.69328859       0.04640717      -2.36680646 
Au      -1.38683369       2.30925233      -2.36680842 
Au      -1.30645456      -2.35565987      -2.36680483 
Au      -0.79532469       1.33115327       2.66895370 
Au      -0.75515998      -1.35433523       2.66896175 
Au       1.55047400       0.02311717       2.66895920 
