20
-1553.880133
Au      -0.00038573      -0.00029673       0.66357638 
Au       0.00047170       0.00003039       4.43407432 
Au      -2.27804822       1.30877781      -2.68357026 
Au       0.00552274      -2.62720696      -2.68357195 
Au       2.27280237       1.31836407      -2.68321081 
Au      -2.24589246       1.28859254      -0.02159709 
Au       0.00638555      -2.58961702      -0.02154176 
Au       2.23879668       1.30041903      -0.02148104 
Au      -1.38571125      -0.80438529      -1.39708990 
Au       1.38896728      -0.79786462      -1.39707879 
Au      -0.00365675       1.60099137      -1.39721987 
Au      -0.00258730       1.51922752      -4.04340204 
Au      -1.31318015      -0.76174760      -4.04325476 
Au       1.31743019      -0.75639837      -4.04301601 
Au      -1.62195733       0.92738748       2.54138041 
Au       0.00711815      -1.86887272       2.54122973 
Au       1.61373011       0.94195111       2.54094251 
Au      -0.01094272       2.54105268       3.90547086 
Au      -2.19507494      -1.27929350       3.90602130 
Au       2.20621205      -1.26111115       3.90333875 
