20
-1553.521083
Au       0.08737050      -0.12818291       2.51905712 
Au      -0.27608122       0.16775303      -0.12231117 
Au      -2.06483688       1.87214011       0.83256705 
Au      -0.38192863      -2.31456684       0.94423865 
Au       2.19078449       0.44112474       0.82044539 
Au       0.44714209       2.31696668       1.46105796 
Au      -2.39087410      -0.66573909       1.41596271 
Au       2.03048506      -1.94423502       1.94669233 
Au      -0.99748452       4.22628676       0.39931794 
Au      -2.79456997      -2.90545665       0.12509239 
Au       4.02674778      -1.37237889       0.36360388 
Au      -2.38568877       2.95628052       5.18588434 
Au      -1.69635100      -3.83432055       5.02745254 
Au       4.08298690       0.97912743       4.94707496 
Au      -2.19552014       1.06728257       3.38885207 
Au       0.08007496      -2.63113097       3.55098292 
Au       2.13012100       1.50365987       3.29823270 
Au      -2.37918485      -2.97012888       2.68816319 
Au       3.95184241      -0.29634532       2.71043099 
Au      -1.46503511       3.53186342       2.84563554 
