20
-1544.872021
Au      -4.48075032      -0.00000000      -0.00000000 
Au       4.48075032      -0.00000000       0.00000000 
Au       0.00000000      -4.48075032      -0.00000000 
Au       0.00000000       4.48075032      -0.00000000 
Au       0.00000000      -0.00000000      -4.48075032 
Au      -0.00000000      -0.00000000       4.48075032 
Au      -1.91787042      -0.00000000      -0.00000000 
Au       1.91787042      -0.00000000      -0.00000000 
Au       0.00000000      -1.91787042       0.00000000 
Au       0.00000000       1.91787042      -0.00000000 
Au       0.00000000       0.00000000      -1.91787042 
Au       0.00000000      -0.00000000       1.91787042 
Au      -1.86346860      -1.86346860      -1.86346860 
Au       1.86346860       1.86346860      -1.86346860 
Au       1.86346860      -1.86346860       1.86346860 
Au      -1.86346860       1.86346860       1.86346860 
Au       1.86346860       1.86346860       1.86346860 
Au      -1.86346860      -1.86346860       1.86346860 
Au      -1.86346860       1.86346860      -1.86346860 
Au       1.86346860      -1.86346860      -1.86346860 
