20
-1545.009153
Au      -4.61714986       0.00000000       0.00000000 
Au       4.61714986       0.00000000      -0.00000000 
Au      -0.00000000      -4.61714986      -0.00000000 
Au      -0.00000000       4.61714986       0.00000000 
Au      -0.00000000      -0.00000000      -4.61714986 
Au      -0.00000000       0.00000000       4.61714986 
Au       1.95355351      -0.00000000      -0.00000000 
Au      -1.95355351       0.00000000       0.00000000 
Au       0.00000000       1.95355351       0.00000000 
Au       0.00000000      -1.95355351      -0.00000000 
Au      -0.00000000       0.00000000       1.95355351 
Au       0.00000000      -0.00000000      -1.95355351 
Au      -1.83858017      -1.83858017      -1.83858017 
Au       1.83858017       1.83858017      -1.83858017 
Au       1.83858017      -1.83858017       1.83858017 
Au      -1.83858017       1.83858017       1.83858017 
Au       1.83858017       1.83858017       1.83858017 
Au      -1.83858017      -1.83858017       1.83858017 
Au      -1.83858017       1.83858017      -1.83858017 
Au       1.83858017      -1.83858017      -1.83858017 
