20
-1545.009159
Au       4.61724499       0.00000000       0.00000000 
Au      -4.61724499       0.00000000      -0.00000000 
Au       0.00000000       4.61724445       0.00000000 
Au      -0.00000000      -4.61724445      -0.00000000 
Au      -0.00000000       0.00000000       4.61724675 
Au       0.00000000      -0.00000000      -4.61724675 
Au       1.95397227      -0.00000000      -0.00000000 
Au      -1.95397227       0.00000000       0.00000000 
Au      -0.00000000       1.95397186      -0.00000000 
Au       0.00000000      -1.95397186       0.00000000 
Au      -0.00000000      -0.00000000       1.95397362 
Au       0.00000000       0.00000000      -1.95397362 
Au      -1.83866487      -1.83866484      -1.83866497 
Au       1.83866487       1.83866484      -1.83866497 
Au       1.83866487      -1.83866484       1.83866497 
Au      -1.83866487       1.83866484       1.83866497 
Au       1.83866487       1.83866484       1.83866497 
Au      -1.83866487      -1.83866484       1.83866497 
Au      -1.83866487       1.83866484      -1.83866497 
Au       1.83866487      -1.83866484      -1.83866497 
