20
-1544.881795
Au      -4.46905625      -0.00000000       0.00000000 
Au       4.46905625       0.00000000      -0.00000000 
Au      -0.00000000      -4.46905625      -0.00000000 
Au      -0.00000000       4.46905625      -0.00000000 
Au      -0.00000000      -0.00000000      -4.46905625 
Au       0.00000000      -0.00000000       4.46905625 
Au       1.90611705      -0.00000000       0.00000000 
Au      -1.90611705       0.00000000      -0.00000000 
Au      -0.00000000       1.90611705      -0.00000000 
Au      -0.00000000      -1.90611705      -0.00000000 
Au       0.00000000      -0.00000000       1.90611705 
Au      -0.00000000       0.00000000      -1.90611705 
Au      -1.86369238      -1.86369238      -1.86369238 
Au       1.86369238       1.86369238      -1.86369238 
Au       1.86369238      -1.86369238       1.86369238 
Au      -1.86369238       1.86369238       1.86369238 
Au       1.86369238       1.86369238       1.86369238 
Au      -1.86369238      -1.86369238       1.86369238 
Au      -1.86369238       1.86369238      -1.86369238 
Au       1.86369238      -1.86369238      -1.86369238 
