20
-1553.104766
Au       2.40699322       2.39485628       2.42415685 
Au      -2.40699409      -2.39485596       2.42415660 
Au      -2.40699106       2.39485418      -2.42415471 
Au       2.40699597      -2.39485778      -2.42415862 
Au      -2.40700074      -2.39486287      -2.42416313 
Au       2.40700340       2.39486360      -2.42416356 
Au       2.40700030      -2.39486176       2.42416157 
Au      -2.40700344       2.39486435       2.42416484 
Au      -0.00001372       1.41520831      -2.11609877 
Au       0.00000484      -1.41520794      -2.11609947 
Au       0.00001104       1.41520796       2.11609945 
Au      -0.00000672      -1.41520833       2.11609875 
Au      -2.13648976      -0.00000775       1.38338739 
Au      -2.13648848       0.00000801      -1.38338818 
Au       2.13648893       0.00000462       1.38338786 
Au       2.13649022      -0.00000494      -1.38338706 
Au       1.40147761      -2.23958324      -0.00000218 
Au      -1.40147755      -2.23958315       0.00000559 
Au       1.40147759       2.23958330       0.00000605 
Au      -1.40147756       2.23958310      -0.00000926 
