20
-1555.4697
Au       0.00000000      -0.00000000       1.96244847 
Au       0.00000000       0.00000000      -0.74361602 
Au       2.60457101      -0.23064595       1.29742879 
Au      -1.10254705       2.37095689       1.29742990 
Au      -1.50206827      -2.14028304       1.29742946 
Au      -2.60457101       0.23064595       1.29742879 
Au       1.10254705      -2.37095689       1.29742990 
Au       1.50206827       2.14028304       1.29742946 
Au      -3.35933956       2.35757389      -0.06183803 
Au      -0.36204542      -4.08806877      -0.06184231 
Au       3.72137874       1.73048662      -0.06183570 
Au       3.35933956      -2.35757389      -0.06183803 
Au       0.36204542       4.08806877      -0.06184231 
Au      -3.72137874      -1.73048662      -0.06183570 
Au       1.51175623       2.15411959      -1.43872928 
Au      -2.62140105       0.23214887      -1.43872922 
Au       1.10965170      -2.38627719      -1.43872982 
Au      -1.51175623      -2.15411959      -1.43872928 
Au       2.62140105      -0.23214887      -1.43872922 
Au      -1.10965170       2.38627719      -1.43872982 
