20
-1555.676479
Au      -0.00000000       0.00000000      -1.33114253 
Au       0.00000000      -0.00000000       1.33197013 
Au       2.50596358       0.54793593       2.28798901 
Au      -1.75759223       1.92684187       2.30380430 
Au      -0.78834036      -2.48059331       2.30283215 
Au      -2.50596358      -0.54793593       2.28798901 
Au       1.75759223      -1.92684187       2.30380430 
Au       0.78834036       2.48059331       2.30283215 
Au      -1.76090438       1.92837223      -2.30197135 
Au      -0.78587864      -2.47755953      -2.30508698 
Au       2.50601276       0.54702062      -2.28781398 
Au       1.76090438      -1.92837223      -2.30197135 
Au       0.78587864       2.47755953      -2.30508698 
Au      -2.50601276      -0.54702062      -2.28781398 
Au       2.55193950      -0.79568473       0.00065054 
Au      -0.53956583       2.44882149      -0.00017650 
Au      -1.97531908      -1.77735359      -0.00064097 
Au      -2.55193950       0.79568473       0.00065054 
Au       0.53956583      -2.44882149      -0.00017650 
Au       1.97531908       1.77735359      -0.00064097 
