20
-1555.373209
Au       0.00000037      -0.00000113       2.60909855 
Au       0.00000002      -0.00000003      -0.79114260 
Au       0.71920415      -2.52248098      -0.15457904 
Au       1.82455045       1.88396633      -0.15479398 
Au      -2.54373154       0.63844193      -0.15487001 
Au      -0.71920433       2.52248170      -0.15457971 
Au      -1.82455008      -1.88396607      -0.15479358 
Au       2.54373103      -0.63844186      -0.15486953 
Au      -3.21699906       3.11599911       0.33376948 
Au      -1.09007765      -4.34410292       0.33390737 
Au       4.30699613       1.22805548       0.33248776 
Au       3.21699909      -3.11599914       0.33376948 
Au       1.09007764       4.34410288       0.33390739 
Au      -4.30699613      -1.22805545       0.33248774 
Au      -1.89777716       1.83802087       2.20638767 
Au      -0.64298265      -2.56266797       2.20656813 
Au       2.54097406       0.72459161       2.20563120 
Au       1.89777705      -1.83802078       2.20638766 
Au       0.64298269       2.56266807       2.20656817 
Au      -2.54097408      -0.72459165       2.20563118 
