20
-1553.490919
Au      -2.73988291       0.18045054       2.54719392 
Au       2.73988291      -0.18045054       2.54719392 
Au      -0.18045054      -2.73988291       2.54719392 
Au       0.18045054       2.73988291       2.54719392 
Au      -2.11955361       2.41862496       1.34691934 
Au       2.11955361      -2.41862496       1.34691934 
Au      -2.41862496      -2.11955361       1.34691934 
Au       2.41862496       2.11955361       1.34691934 
Au       0.12255594       1.85589292      -2.60905670 
Au      -0.12255594      -1.85589292      -2.60905670 
Au      -1.85589292       0.12255594      -2.60905670 
Au       1.85589292      -0.12255594      -2.60905670 
Au      -2.40741963      -2.10980592      -1.31317002 
Au       2.40741963       2.10980592      -1.31317002 
Au       2.10980592      -2.40741963      -1.31317002 
Au      -2.10980592       2.40741963      -1.31317002 
Au       0.12870188       1.95467150       0.02811345 
Au      -0.12870188      -1.95467150       0.02811345 
Au      -1.95467150       0.12870188       0.02811345 
Au       1.95467150      -0.12870188       0.02811345 
