20
-1551.706449
Au       0.00003662      -0.00005265      -3.06171684 
Au      -0.00003662       0.00005265       3.06171684 
Au      -2.49166808       0.32476167       3.71103128 
Au       0.96454750      -2.32016877       3.71088760 
Au       1.52711309       1.99544231       3.71097449 
Au       2.49166808      -0.32476167      -3.71103128 
Au      -0.96454750       2.32016877      -3.71088760 
Au      -1.52711309      -1.99544231      -3.71097449 
Au       0.99930183       1.29656725       1.03367082 
Au      -1.62248530       0.21717655       1.03364302 
Au       0.62313215      -1.51369494       1.03368155 
Au      -0.99930183      -1.29656725      -1.03367082 
Au       1.62248530      -0.21717655      -1.03364302 
Au      -0.62313215       1.51369494      -1.03368155 
Au      -1.51205602       0.19715162      -5.18942871 
Au       0.58527947      -1.40803783      -5.18946919 
Au       0.92674728       1.21090480      -5.18947224 
Au       1.51205602      -0.19715162       5.18942871 
Au      -0.58527947       1.40803783       5.18946919 
Au      -0.92674728      -1.21090480       5.18947224 
