20
-1553.156732
Au      -0.10546524      -0.41410440       1.26338262 
Au       0.10551104       0.41390216      -1.26333670 
Au      -4.37624711       0.29053819      -0.91562822 
Au       0.56425832      -4.84806367      -0.77278321 
Au       3.72774530       1.14011605      -1.13752674 
Au       4.37628297      -0.28924739       0.91643188 
Au      -0.56471591       4.84803806       0.77269504 
Au      -3.72783615      -1.14031891       1.13734493 
Au       1.60755698       2.56695748      -1.52933160 
Au      -2.26372829       1.08695451      -2.20066593 
Au       0.24124102      -2.35568048      -1.53743670 
Au      -1.60764233      -2.56730019       1.52893933 
Au       2.26380821      -1.08715411       2.20059997 
Au      -0.24111132       2.35575899       1.53741264 
Au      -2.25002578       1.03884538       0.48674199 
Au       0.90858234      -2.92311708       0.94749630 
Au       1.99367889       1.19500446       0.81893471 
Au       2.25043453      -1.03899434      -0.48665745 
Au      -0.90864711       2.92304203      -0.94759517 
Au      -1.99368036      -1.19517674      -0.81901770 
