20
-1555.915113
Au      -0.00268065      -0.00116583      -2.04417013 
Au       0.00267041       0.00123287       2.04418752 
Au      -1.46088025       2.19179430       1.40710931 
Au      -1.16410670      -2.36140884       1.40917658 
Au       2.63074971       0.17187176       1.40227509 
Au       1.46080193      -2.19163667      -1.40705212 
Au       1.16420408       2.36142580      -1.40923696 
Au      -2.63079604      -0.17194928      -1.40233997 
Au      -3.66002851       1.80722877       0.00373847 
Au       0.26529547      -4.07344478       0.00193121 
Au       3.39490648       2.26658585      -0.00583837 
Au       3.66002991      -1.80717722      -0.00369638 
Au      -0.26534264       4.07340802      -0.00200036 
Au      -3.39497672      -2.26666789       0.00590179 
Au      -1.44754791       2.16469986      -1.37432694 
Au      -1.15442853      -2.33564564      -1.37221422 
Au       2.59623413       0.16849251      -1.37842022 
Au       1.44762354      -2.16477795       1.37435666 
Au       1.15445866       2.33563433       1.37219768 
Au      -2.59618635      -0.16849996       1.37842138 
