20
-1550.52539
Au      -0.00000317      -0.00000172      -0.00000000 
Au       0.00000003      -0.00000006      -5.19470254 
Au       0.00000003      -0.00000006       5.19470254 
Au       0.00000007       0.00000069      -2.59998308 
Au       0.00000007       0.00000069       2.59998308 
Au       4.38757328      -2.72655493       0.00000000 
Au       0.16747889       5.16302754      -0.00000000 
Au      -4.55505331      -2.43647473      -0.00000000 
Au      -4.51052167       0.15223865      -0.00000000 
Au       2.12341778      -3.98234577       0.00000000 
Au       2.38710351       3.83010647      -0.00000000 
Au      -0.08457140      -2.60715405      -0.00000000 
Au       2.30014856       1.23033773       0.00000000 
Au      -2.21557772       1.37681674      -0.00000000 
Au      -2.37705053      -3.83633447      -0.00000000 
Au       4.51088773      -0.14042032      -0.00000000 
Au      -2.13383623       3.97675423       0.00000000 
Au      -2.27143038      -1.21494154      -0.00000000 
Au       2.18788947      -1.35964781       0.00000000 
Au       0.08354502       2.57459273       0.00000000 
