20
-1551.051315
Au      -0.60939032       0.62929674      -0.00000000 
Au       0.31770525      -0.48243975       4.69012049 
Au       0.31770525      -0.48243975      -4.69012049 
Au       0.32889830      -0.61827080      -2.13183407 
Au       0.32889830      -0.61827080       2.13183407 
Au       4.65212647      -3.82113651      -0.00000000 
Au       1.10618458       4.80746803      -0.00000000 
Au      -7.10747247      -1.52960796       0.00000000 
Au      -2.63731195      -1.03697127       0.00000000 
Au       1.85282897      -0.33972868       0.00000000 
Au       1.46538068       2.22757795       0.00000000 
Au       3.89404347       1.29549614       0.00000000 
Au      -3.00958583       1.60886864      -0.00000000 
Au      -0.20492126      -2.01440492      -0.00000000 
Au       2.22365016      -2.92312229      -0.00000000 
Au       3.53091958       3.86680704       0.00000000 
Au      -5.06172676       0.04884931       0.00000000 
Au       4.30303888      -1.26345589       0.00000000 
Au      -0.95922085       3.22397574      -0.00000000 
Au      -4.73175044      -2.57849096       0.00000000 
