20
-1550.525388
Au       0.00007961      -0.00018237      -0.00000000 
Au      -0.00018627      -0.00021942      -2.59994984 
Au      -0.00018627      -0.00021942       2.59994984 
Au       0.00009791       0.00008090       5.19468296 
Au       0.00009791       0.00008090      -5.19468296 
Au       0.54175520      -5.13765574       0.00000000 
Au       4.17790685       3.03844670      -0.00000000 
Au      -4.71985576       2.09973241       0.00000000 
Au       2.38357925      -1.06023569      -0.00000000 
Au      -0.27356971       2.59384542       0.00000000 
Au      -2.10971105      -1.53405301       0.00000000 
Au      -4.48763554      -0.47896737      -0.00000000 
Au       2.65878335      -3.64715815      -0.00000000 
Au       1.82840820       4.12612636      -0.00000000 
Au      -1.83957753      -4.12128578       0.00000000 
Au       4.48884056       0.46809001      -0.00000000 
Au      -2.64907797       3.65380136       0.00000000 
Au       0.27033251      -2.56196934      -0.00000000 
Au       2.08353086       1.51492919      -0.00000000 
Au      -2.35361212       1.04681303       0.00000000 
