20
-1543.403591
Au      -0.00000000      -0.00000000      -3.85901594 
Au      -0.00000000      -0.00000000       3.85901594 
Au       0.00000000       0.00000000      -1.28594334 
Au       0.00000000       0.00000000       1.28594334 
Au      -5.63887651       1.28079304       0.00000000 
Au       5.63887651      -1.28079304       0.00000000 
Au      -1.28079304      -5.63887651      -0.00000000 
Au       1.28079304       5.63887651       0.00000000 
Au       5.63887651       1.28079304      -0.00000000 
Au      -5.63887651      -1.28079304      -0.00000000 
Au       1.28079304      -5.63887651       0.00000000 
Au      -1.28079304       5.63887651      -0.00000000 
Au      -3.08228969      -1.28027399       0.00000000 
Au       3.08228969       1.28027399      -0.00000000 
Au       1.28027399      -3.08228969      -0.00000000 
Au      -1.28027399       3.08228969       0.00000000 
Au       3.08228969      -1.28027399      -0.00000000 
Au      -3.08228969       1.28027399      -0.00000000 
Au      -1.28027399      -3.08228969      -0.00000000 
Au       1.28027399       3.08228969       0.00000000 
