20
-1551.918312
Au       0.00001564      -0.00001612      -0.00000000 
Au      -0.00001109       0.00001221      -2.80440238 
Au      -0.00001109       0.00001221       2.80440238 
Au       0.00000967      -0.00000647       5.39985879 
Au       0.00000967      -0.00000647      -5.39985879 
Au       3.33523906      -2.45349040       0.00000000 
Au       0.45716402       4.11513619      -0.00000000 
Au      -3.79234781      -1.66161530       0.00000000 
Au       2.65153557       0.18360378       0.00000000 
Au      -1.48479850       2.20454775      -0.00000000 
Au      -1.16680615      -2.38809526       0.00000000 
Au      -3.98404572       1.12425321      -0.00000000 
Au       1.01839080      -4.01247739      -0.00000000 
Au       2.96566877       2.88815958       0.00000000 
Au      -2.19343960      -0.15217807       1.37910404 
Au       1.22851778      -1.82349071       1.37916993 
Au       0.96491541       1.97566002       1.37913748 
Au      -2.19343960      -0.15217807      -1.37910404 
Au       1.22851778      -1.82349071      -1.37916993 
Au       0.96491541       1.97566002      -1.37913748 
