20
-1555.167578
Au       0.21066494      -0.13360712       0.47103737 
Au       0.12091000      -0.71844822       3.07896999 
Au      -1.18846983      -0.60331929      -2.34238135 
Au      -0.57120097       1.44018686       4.36830602 
Au       0.66981566      -0.36992359      -4.22944029 
Au      -1.35506658       1.68380075      -0.84999823 
Au      -0.73000864      -2.51812712      -0.48644012 
Au       2.71644083       0.77693628       0.36557450 
Au       0.93585167       2.65153396      -0.09454189 
Au      -2.42340314      -0.59658932       0.04744148 
Au       2.14587798      -1.52115071      -0.73323090 
Au      -3.67173768       1.66037384       0.43681704 
Au       1.39497977      -4.02417427      -0.69992517 
Au       2.99624114       3.13909821       1.43986861 
Au      -1.60323043       1.13275826       1.97081738 
Au       1.01863825      -2.58705640       1.48678422 
Au       1.03958973       1.68260962       2.34435389 
Au      -3.48468198       0.69288446      -2.00245631 
Au       0.69104128      -2.47371322      -2.70044022 
Au       1.08774798       0.68592699      -1.87111599 
