20
-1549.369223
Au       0.05363405      -0.13380952      -0.00000121 
Au      -0.17817425       0.38467956       5.22051481 
Au      -0.17817441       0.38467985      -5.22051720 
Au      -0.09868260       0.18626861       2.62210408 
Au      -0.09872096       0.18624899      -2.62209695 
Au      -1.08944973       2.34738073      -0.00000010 
Au      -1.43700180      -2.23546182      -0.00002839 
Au       2.60576079      -0.39767767       0.00002098 
Au       3.73928624      -2.73362048       0.00000000 
Au       0.53953599       4.36752703      -0.00000001 
Au      -4.01926668      -1.98910665       0.00000003 
Au       1.15134880      -2.65978964      -0.00000073 
Au       1.55513663       1.97697431       0.00000068 
Au      -2.50533429       0.13553772      -0.00000010 
Au      -2.28421443       1.56685625      -2.19819773 
Au      -0.12189386      -2.40388884      -2.27009739 
Au       2.38616198       0.92711895      -2.25572989 
Au      -2.28421768       1.56685840       2.19819763 
Au      -0.12189068      -2.40389237       2.27010364 
Au       2.38615692       0.92711660       2.25572782 
