20
-1554.654768
Au       0.56377540       0.07262648       0.00000017 
Au      -0.85704735      -0.87755323       4.31193674 
Au      -0.85704672      -0.87755310      -4.31193637 
Au      -0.91116133       0.69853011      -2.23387215 
Au      -0.91116150       0.69853004       2.23387225 
Au       2.12307364      -2.04707558       0.00000026 
Au       1.66747133       2.54794537      -0.00000090 
Au      -2.15117959      -0.21704159       0.00000000 
Au       3.22367636       0.44237981      -0.00000035 
Au      -1.06312166       2.16370670       0.00000017 
Au      -0.46697773      -2.44231982       0.00000010 
Au       4.70146930      -1.69509996       0.00000020 
Au       0.00592030       4.57449802       0.00000030 
Au      -3.10322096      -2.65883201      -0.00000003 
Au       0.75708037      -1.50140536       2.27552355 
Au       0.14856719       3.09381805       2.13338236 
Au      -1.88788181      -1.78378404       2.12435768 
Au       0.75708069      -1.50140523      -2.27552321 
Au       0.14856531       3.09381917      -2.13338262 
Au      -1.88788128      -1.78378383      -2.12435815 
