20
-1551.739284
Au      -0.00000000      -0.00000000      -2.16110075 
Au      -0.00000000      -0.00000000       2.16110075 
Au      -6.06317160      -0.14487778       0.00000000 
Au       3.15705363      -5.17842174       0.00000000 
Au       2.90611796       5.32329952      -0.00000000 
Au       3.02002684       2.69926128       0.00000000 
Au      -3.84764226       1.26578933      -0.00000000 
Au       0.82761542      -3.96505061       0.00000000 
Au      -3.82501628       3.85201259      -0.00000000 
Au      -1.42343262      -5.23856756      -0.00000000 
Au       5.24844890       1.38655497       0.00000000 
Au       0.72254300       1.31956579       0.00000000 
Au      -1.50404900      -0.03404230       0.00000000 
Au       0.78150599      -1.28552350      -0.00000000 
Au       0.71762978       3.93474958       0.00000000 
Au      -3.76640798      -1.34588917       0.00000000 
Au       3.04877820      -2.58886041      -0.00000000 
Au      -1.54449552       2.63071551       0.00000000 
Au      -1.50601870      -2.65293011       0.00000000 
Au       3.05051422       0.02221460      -0.00000000 
