20
-1549.752334
Au      -0.00083856       0.00038679      -2.16823172 
Au      -0.00083856       0.00038679       2.16823172 
Au       5.08430199      -4.08174192       0.00000000 
Au       0.99399506       6.44455070       0.00000000 
Au      -6.07733663      -2.36270179       0.00000000 
Au      -0.10384608       1.48560339      -0.00000000 
Au      -1.23510794      -0.83203038      -0.00000000 
Au       1.33741743      -0.65253101       0.00000000 
Au      -3.48126463      -2.15497376      -0.00000000 
Au       3.60461751      -1.93846629       0.00000000 
Au      -0.12373526       4.09209918      -0.00000000 
Au       2.44967962       4.29578132       0.00000000 
Au      -4.94374307      -0.02786408      -0.00000000 
Au       2.49564190      -4.26952804       0.00000000 
Au      -2.01630416      -4.27086171       0.00000000 
Au       4.70601750       0.38747346       0.00000000 
Au      -2.68871806       3.88309566      -0.00000000 
Au       0.23145108      -3.01591522      -0.00000000 
Au       2.49633342       1.70820151       0.00000000 
Au      -2.72772257       1.30903543      -0.00000000 
