20
-1552.301842
Au      -0.17207443       0.47578307      -0.00000071 
Au      -0.02528144       0.57840698      -2.67268652 
Au      -0.02528347       0.57840931       2.67268522 
Au      -1.39313705      -0.08210032      -4.77971277 
Au      -1.39313736      -0.08209850       4.77971241 
Au      -1.57047294      -1.73041827       0.00000006 
Au       2.39911674       0.02866127      -0.00000097 
Au      -0.58879942       3.02801855       0.00000247 
Au       3.25872837      -2.06279152      -1.31354379 
Au       0.94286781       4.67451229      -1.31097641 
Au      -3.42914008      -2.98267486      -1.31585467 
Au       3.25872742      -2.06279227       1.31354101 
Au       0.94286987       4.67451195       1.31097898 
Au      -3.42914125      -2.98267341       1.31585469 
Au       1.57833599       2.13992694      -1.30571375 
Au      -1.66547190      -1.50777594      -2.61333784 
Au       0.69921460      -1.65852951      -1.35035206 
Au       1.57833777       2.13992642       1.30571356 
Au      -1.66547333      -1.50777411       2.61333762 
Au       0.69921410      -1.65852808       1.35035346 
