20
-1548.156925
Au       0.00000010      -0.00000062      -0.00004210 
Au       0.00000012      -0.00000050      -2.55852329 
Au       0.00000009      -0.00000053       2.55851475 
Au      -0.00000023       0.00000117       5.12138447 
Au      -0.00000022       0.00000122      -5.12133425 
Au      -1.70048250       1.96156132      -0.00000132 
Au      -0.84852080      -2.45344257      -0.00000155 
Au       2.54900320       0.49188188      -0.00000124 
Au       2.55034338       0.49267345      -2.58623821 
Au      -1.70183891       1.96232548      -2.58623824 
Au      -0.84850451      -2.45499933      -2.58623795 
Au       2.55034818       0.49267441       2.58623779 
Au      -1.70184213       1.96232912       2.58623790 
Au      -0.84850601      -2.45500381       2.58623785 
Au      -3.19084259       3.67011781       1.29796855 
Au      -1.58299417      -4.59841051       1.29796857 
Au       4.77383686       0.92829230       1.29796865 
Au      -3.19084500       3.67012050      -1.29796677 
Au      -1.58299527      -4.59841387      -1.29796676 
Au       4.77384043       0.92829306      -1.29796687 
