20
-1553.738382
Au       0.32516566      -0.48784215       0.23961645 
Au      -0.53062712       0.71115941      -4.76794421 
Au      -0.45454380       0.60699559       4.34188930 
Au      -0.06303404       0.06104243      -2.30217871 
Au       0.74301716      -1.07049212       2.76617041 
Au      -2.00995106       0.53716909      -0.44463943 
Au       1.81374566      -2.52440389       0.86970903 
Au       0.13446466       2.05709664      -0.45025511 
Au      -4.43326108       0.59203524      -1.41466276 
Au       2.92801738      -4.00777545      -0.98170497 
Au       0.93124151       4.34466171      -1.42387978 
Au      -4.05228678      -0.10830393       1.08297977 
Au       3.33149086      -4.58432126       1.52138183 
Au       1.42809459       3.76082872       1.08293923 
Au       1.43492421      -1.98518930      -1.65776974 
Au      -0.24533579       2.63036072      -3.01250272 
Au      -2.41731074       1.11400742      -3.00000580 
Au       2.23305512      -3.11907923       3.36412138 
Au       0.52998587       1.50582979       2.09220148 
Au      -1.62685231      -0.03377942       2.09453433 
