20
-1549.369602
Au       0.00000000      -0.00000000       1.25707927 
Au      -0.00000000      -0.00000000      -1.25707927 
Au       0.00000000      -0.00000000      -3.80545555 
Au       0.00000000       0.00000000       3.80545555 
Au      -1.68886498      -1.68886498      -2.25793667 
Au       1.68886498       1.68886498      -2.25793667 
Au       1.68886498      -1.68886498      -2.25793667 
Au      -1.68886498       1.68886498      -2.25793667 
Au       1.68886498      -1.68886498       2.25793667 
Au      -1.68886498       1.68886498       2.25793667 
Au      -1.68886498      -1.68886498       2.25793667 
Au       1.68886498       1.68886498       2.25793667 
Au      -1.28990937       3.10798200      -0.00000000 
Au       1.28990937      -3.10798200      -0.00000000 
Au      -3.10798200      -1.28990937      -0.00000000 
Au       3.10798200       1.28990937       0.00000000 
Au       1.28990937       3.10798200      -0.00000000 
Au      -1.28990937      -3.10798200      -0.00000000 
Au       3.10798200      -1.28990937       0.00000000 
Au      -3.10798200       1.28990937       0.00000000 
