20
-1552.781831
Au       0.00000000       0.00000000      -0.00000334 
Au      -0.00000000      -0.00000000      -5.36804094 
Au       0.00000000      -0.00000000       5.36798639 
Au       0.00000000      -0.00000000       2.76620506 
Au      -0.00000000       0.00000000      -2.76617917 
Au      -1.83689787       1.86433596      -0.00001454 
Au      -0.69611337      -2.52296820      -0.00001456 
Au       2.53301124       0.65863224      -0.00001456 
Au       2.50478186       0.65272819      -2.57365670 
Au      -1.81767012       1.84284062      -2.57365671 
Au      -0.68711173      -2.49556881      -2.57365670 
Au       2.50476267       0.65272335       2.57368291 
Au      -1.81765634       1.84282644       2.57368291 
Au      -0.68710634      -2.49554978       2.57368291 
Au      -2.22864057      -0.58018538      -1.32464999 
Au       1.61677556      -1.63996666      -1.32464999 
Au       0.61186501       2.22015204      -1.32464999 
Au      -2.22863835      -0.58018476       1.32464901 
Au       1.61677392      -1.63996505       1.32464901 
Au       0.61186443       2.22014981       1.32464901 
