20
-1549.528714
Au       0.00000014      -0.00000024      -0.00001003 
Au      -0.00005887      -0.00001947      -2.57707364 
Au      -0.00005693      -0.00001837       2.57708864 
Au       0.00000220       0.00000136      -5.19451826 
Au       0.00000238       0.00000147       5.19451538 
Au       2.66493490      -0.16527013       0.00000001 
Au      -1.18933995       2.39053755       0.00000000 
Au      -1.47559688      -2.22526818      -0.00000000 
Au      -1.14944586       2.30767374       2.63455770 
Au      -1.42377265      -2.14926940       2.63455785 
Au       2.57325738      -0.15839124       2.63455760 
Au      -1.14944617       2.30767417      -2.63455758 
Au      -1.42377244      -2.14926899      -2.63455778 
Au       2.57325873      -0.15839139      -2.63455742 
Au       1.25074273       1.88909727       3.85168326 
Au      -2.26135627       0.13862560       3.85166633 
Au       1.01063016      -2.02771855       3.85167690 
Au       1.25074361       1.88909864      -3.85168427 
Au      -2.26135679       0.13862562      -3.85166698 
Au       1.01063058      -2.02771946      -3.85167770 
