20
-1552.273042
Au       0.00000000       0.00000000      -2.27281465 
Au       0.00000000       0.00000000       2.27281465 
Au       3.68158111       1.54330372       0.00000000 
Au      -3.17733079       2.41669092       0.00000000 
Au      -0.50425033      -3.95999464       0.00000000 
Au      -2.31917176      -2.09446941      -0.00000000 
Au       2.97344960      -0.96122695      -0.00000000 
Au      -0.65427783       3.05569637       0.00000000 
Au       1.92427108       3.44268369      -0.00000000 
Au      -3.94358709      -0.05487421      -0.00000000 
Au       2.01931601      -3.38780950      -0.00000000 
Au       1.11710856       0.97200136       0.00000000 
Au      -1.40033211       0.48144368       0.00000000 
Au       0.28322356      -1.45344502      -0.00000000 
Au      -2.60174504       1.02653998       2.23068573 
Au       0.41186282      -2.76644729       2.23068573 
Au       2.18988222       1.73990731       2.23068572 
Au      -2.60174504       1.02653998      -2.23068573 
Au       0.41186282      -2.76644729      -2.23068573 
Au       2.18988222       1.73990731      -2.23068572 
