20
-1552.273041
Au       0.00037679      -0.00020673       2.27299513 
Au       0.00037679      -0.00020673      -2.27299513 
Au       1.08744626      -1.00499784       0.00000000 
Au       0.32660802       1.44447612       0.00000000 
Au      -1.41425953      -0.43893267       0.00000000 
Au       3.63390644      -1.65083340       0.00000000 
Au      -0.38746231       3.97285674       0.00000000 
Au      -3.24683714      -2.32130793       0.00000000 
Au      -3.94079293       0.17137856       0.00000000 
Au       1.82210416      -3.49830945      -0.00000000 
Au       2.11818349       3.32740300      -0.00000000 
Au      -2.25643900       2.16162723      -0.00000000 
Au      -0.74374642      -3.03446796      -0.00000000 
Au       2.99987004       0.87345610      -0.00000000 
Au       2.13626103      -1.80658184       2.23042369 
Au       0.49578251       2.75275816       2.23078871 
Au      -2.63171088      -0.94714384       2.23068765 
Au       2.13626103      -1.80658184      -2.23042369 
Au       0.49578251       2.75275816      -2.23078871 
Au      -2.63171088      -0.94714384      -2.23068765 
