20
-1553.324241
Au       0.00026234      -0.00003065       2.21945800 
Au       0.00026233      -0.00003066      -2.21945799 
Au      -2.63734117       3.05144564      -0.00000001 
Au      -1.32372666      -3.80956825      -0.00000005 
Au       3.96076442       0.75828509      -0.00000000 
Au      -3.10101992       0.46325442      -0.00000001 
Au       1.14937797      -2.91740598      -0.00000000 
Au       1.95140323       2.45376381       0.00000000 
Au      -0.17359683       4.01853677       0.00000000 
Au      -3.39326540      -2.15931172       0.00000002 
Au       3.56713398      -1.85899323      -0.00000000 
Au      -0.93279949      -1.22243402       0.00000001 
Au       1.52502364      -0.19692709       0.00000000 
Au      -0.59226206       1.41915547       0.00000001 
Au       2.06013898      -1.65425274      -2.14828858 
Au       0.40196523       2.61108706      -2.14836304 
Au      -2.46221240      -0.95670414      -2.14829813 
Au       2.06013897      -1.65425274       2.14828858 
Au       0.40196524       2.61108707       2.14836304 
Au      -2.46221241      -0.95670409       2.14829814 
