20
-1554.665117
Au       0.00000053      -0.00000029      -2.29235361 
Au       0.00000053      -0.00000029       2.29235361 
Au      -1.44230327       0.51554769       0.00000000 
Au       0.27468088      -1.50683945       0.00000000 
Au       1.16762228       0.99129913      -0.00000000 
Au      -2.55307232       2.86354815       0.00000000 
Au      -1.20337042      -3.64280311      -0.00000000 
Au       3.75644474       0.77925395      -0.00000000 
Au       2.37251334      -0.93325541      -1.46320177 
Au      -0.37803414       2.52128407      -1.46320370 
Au      -1.99448060      -1.58802980      -1.46320383 
Au       2.37251334      -0.93325541       1.46320177 
Au      -0.37803414       2.52128407       1.46320370 
Au      -1.99448060      -1.58802980       1.46320383 
Au      -2.45288119       1.09558026      -2.32588819 
Au       0.27763892      -2.67204930      -2.32588840 
Au       2.17524218       1.57646730      -2.32588874 
Au      -2.45288119       1.09558026       2.32588819 
Au       0.27763892      -2.67204930       2.32588839 
Au       2.17524218       1.57646730       2.32588874 
