20
-1554.058158
Au       0.00560902       0.00399247       1.30950462 
Au       0.00547945       0.00390422      -1.30945926 
Au       1.47039306      -2.59471872       0.00001225 
Au       1.11139438       2.14392408       0.00007911 
Au      -2.42076898       0.11016462      -0.00003625 
Au      -1.12243239      -2.14691628      -0.00001697 
Au       2.44113543      -0.16600164       0.00004806 
Au      -1.46950403       2.56381600       0.00003645 
Au      -0.00694312       1.53386496       3.58894289 
Au      -1.35317592      -0.75878039       3.41416370 
Au       1.29018649      -0.76569696       3.63972618 
Au      -0.00696703       1.53383845      -3.58904508 
Au      -1.35321934      -0.75879156      -3.41422406 
Au       1.29018382      -0.76569187      -3.63975971 
Au       0.09105256      -2.61109930       2.25474883 
Au       2.20002312       1.23308911       2.21051393 
Au      -2.23176473       1.40956228       2.24828228 
Au       0.09106085      -2.61113568      -2.25476204 
Au       2.19997979       1.23302311      -2.21047499 
Au      -2.23172244       1.40965311      -2.24827994 
