20
-1554.97959
Au      -0.00485051      -0.00085502      -2.31221340 
Au      -0.00485051      -0.00085502       2.31221340 
Au       3.12321020       0.50656975       0.00000000 
Au      -1.98834519       2.45982950      -0.00000000 
Au      -1.10936264      -2.96147638      -0.00000000 
Au       0.53267452       1.45437557      -0.00000000 
Au      -1.58569905      -0.25715609       0.00000000 
Au       0.96509993      -1.21247100      -0.00000000 
Au       2.04293377       1.66219316       2.15036467 
Au      -2.45407958       0.93876023       2.18205329 
Au       0.43628105      -2.63977804       2.17574903 
Au       2.04293376       1.66219316      -2.15036466 
Au      -2.45407957       0.93876023      -2.18205329 
Au       0.43628105      -2.63977806      -2.17574903 
Au      -2.03214696      -1.66606343       2.18251682 
Au       2.46306951      -0.93149860       2.15008695 
Au      -0.41999616       2.64240604       2.17549672 
Au      -2.03214695      -1.66606343      -2.18251681 
Au       2.46306950      -0.93149861      -2.15008695 
Au      -0.41999616       2.64240605      -2.17549672 
