20
-1549.369581
Au       0.00000000      -0.00000000       3.80537498 
Au       0.00000000       0.00000000      -3.80537498 
Au       0.00000000       0.00000000      -1.25712071 
Au      -0.00000000      -0.00000000       1.25712071 
Au       1.68924392       1.68924392      -2.25684935 
Au      -1.68924392      -1.68924392      -2.25684935 
Au      -1.68924392       1.68924392      -2.25684935 
Au       1.68924392      -1.68924392      -2.25684935 
Au      -1.68924392       1.68924392       2.25684935 
Au       1.68924392      -1.68924392       2.25684935 
Au       1.68924392       1.68924392       2.25684935 
Au      -1.68924392      -1.68924392       2.25684935 
Au       3.10822090       1.28993882      -0.00000000 
Au      -3.10822090      -1.28993882       0.00000000 
Au      -1.28993882       3.10822090       0.00000000 
Au       1.28993882      -3.10822090       0.00000000 
Au      -3.10822090       1.28993882      -0.00000000 
Au       3.10822090      -1.28993882      -0.00000000 
Au       1.28993882       3.10822090      -0.00000000 
Au      -1.28993882      -3.10822090      -0.00000000 
