20
-1552.873748
Au       0.00001490       0.00000958      -1.53238712 
Au       0.00001490       0.00000958       1.53238712 
Au       4.74116247       0.51644303      -0.00000000 
Au      -2.81783868       3.84782027       0.00000000 
Au      -1.92334950      -4.36421382      -0.00000000 
Au       0.62817955       2.10844314       0.00000000 
Au      -2.14005550      -0.51021799       0.00000000 
Au       1.51188832      -1.59827903      -0.00000000 
Au      -1.83217397       1.81831264      -1.32231821 
Au      -0.65858642      -2.49588311      -1.32233564 
Au       2.49077164       0.67753770      -1.32230909 
Au      -1.83217397       1.81831264       1.32231821 
Au      -0.65858642      -2.49588311       1.32233564 
Au       2.49077164       0.67753770       1.32230909 
Au       3.80414606      -1.58201636      -1.31519438 
Au      -0.53198094       4.08550582      -1.31518761 
Au      -3.27218461      -2.50346409      -1.31518689 
Au       3.80414606      -1.58201636       1.31519438 
Au      -0.53198094       4.08550582       1.31518761 
Au      -3.27218461      -2.50346409       1.31518689 
