20
-1551.956153
Au      -0.00000001       0.00000002      -1.29969885 
Au      -0.00000001       0.00000002       1.29969885 
Au       2.09794667      -2.13990226       3.38107723 
Au       0.80423737       2.88682878       3.38107739 
Au      -2.90218271      -0.74692279       3.38107686 
Au       2.09794667      -2.13990226      -3.38107723 
Au       0.80423737       2.88682878      -3.38107739 
Au      -2.90218271      -0.74692279      -3.38107686 
Au      -2.63492042       0.80264776       1.29819872 
Au       0.62234665      -2.68323210       1.29819749 
Au       2.01257399       1.88058399       1.29819672 
Au      -2.63492042       0.80264776      -1.29819872 
Au       0.62234665      -2.68323210      -1.29819749 
Au       2.01257399       1.88058399      -1.29819672 
Au       1.48996313       0.38151224       3.46311929 
Au      -1.07538420       1.09958654       3.46311904 
Au      -0.41458050      -1.48110217       3.46311914 
Au       1.48996313       0.38151224      -3.46311929 
Au      -1.07538420       1.09958654      -3.46311904 
Au      -0.41458050      -1.48110217      -3.46311914 
