20
-1553.238322
Au      -0.27585847       0.12103937       1.90649484 
Au      -0.27585847       0.12103937      -1.90649484 
Au      -1.00848514       2.23885269       3.30910575 
Au      -0.87256459      -2.20965391       3.12423069 
Au       2.26623650       0.25517822       1.31445668 
Au      -1.00848514       2.23885269      -3.30910575 
Au      -0.87256459      -2.20965391      -3.12423069 
Au       2.26623650       0.25517822      -1.31445668 
Au       0.99715105      -2.15175850       1.28938832 
Au       0.66351727       2.52067297       1.29084482 
Au      -2.47064781      -1.20346201       1.29681570 
Au       0.99715105      -2.15175850      -1.28938832 
Au       0.66351727       2.52067297      -1.29084482 
Au      -2.47064781      -1.20346201      -1.29681570 
Au       1.51560606       1.53060127       3.53585516 
Au      -2.24445190      -0.04962619       3.66805342 
Au       1.42949702      -1.05184389       3.60744201 
Au       1.51560606       1.53060127      -3.53585516 
Au      -2.24445190      -0.04962619      -3.66805342 
Au       1.42949702      -1.05184389      -3.60744201 
