20
-1545.009155
Au      -4.61722554       0.00000000       0.00000000 
Au       4.61722554       0.00000000      -0.00000000 
Au      -0.00000000      -4.61722554      -0.00000000 
Au       0.00000000       4.61722554      -0.00000000 
Au       0.00000000       0.00000000      -4.61722554 
Au       0.00000000       0.00000000       4.61722554 
Au      -1.95411328       0.00000000       0.00000000 
Au       1.95411328       0.00000000      -0.00000000 
Au      -0.00000000      -1.95411328       0.00000000 
Au      -0.00000000       1.95411328      -0.00000000 
Au       0.00000000       0.00000000      -1.95411328 
Au      -0.00000000      -0.00000000       1.95411328 
Au      -1.83865270      -1.83865270      -1.83865270 
Au       1.83865270       1.83865270      -1.83865270 
Au       1.83865270      -1.83865270       1.83865270 
Au      -1.83865270       1.83865270       1.83865270 
Au      -1.83865270      -1.83865270       1.83865270 
Au       1.83865270       1.83865270       1.83865270 
Au      -1.83865270       1.83865270      -1.83865270 
Au       1.83865270      -1.83865270      -1.83865270 
