20
-1545.009163
Au       4.61742519      -0.00000000      -0.00000000 
Au      -4.61742519       0.00000000       0.00000000 
Au      -0.00000000       4.61742518       0.00000000 
Au       0.00000000      -4.61742518      -0.00000000 
Au      -0.00000000       0.00000000       4.61742519 
Au       0.00000000      -0.00000000      -4.61742519 
Au       1.95381463       0.00000000      -0.00000000 
Au      -1.95381463       0.00000000       0.00000000 
Au       0.00000000       1.95381460      -0.00000000 
Au       0.00000000      -1.95381460      -0.00000000 
Au      -0.00000000       0.00000000       1.95381462 
Au       0.00000000      -0.00000000      -1.95381462 
Au      -1.83865114      -1.83865114      -1.83865114 
Au       1.83865114       1.83865114      -1.83865114 
Au       1.83865114      -1.83865114       1.83865114 
Au      -1.83865114       1.83865114       1.83865114 
Au      -1.83865114      -1.83865114       1.83865114 
Au       1.83865114       1.83865114       1.83865114 
Au      -1.83865114       1.83865114      -1.83865114 
Au       1.83865114      -1.83865114      -1.83865114 
