20
-1545.009171
Au       4.61819494       0.00000000       0.00000000 
Au      -4.61819494       0.00000000      -0.00000000 
Au      -0.00000000       4.61823149       0.00000000 
Au       0.00000000      -4.61823149      -0.00000000 
Au      -0.00000000       0.00000000       4.61811916 
Au      -0.00000000      -0.00000000      -4.61811916 
Au       1.95421732      -0.00000000       0.00000000 
Au      -1.95421732       0.00000000      -0.00000000 
Au      -0.00000000       1.95423312      -0.00000000 
Au       0.00000000      -1.95423312       0.00000000 
Au       0.00000000      -0.00000000       1.95418451 
Au      -0.00000000       0.00000000      -1.95418451 
Au       1.83859613       1.83859167       1.83860541 
Au      -1.83859613      -1.83859167       1.83860541 
Au      -1.83859613       1.83859167      -1.83860541 
Au       1.83859613      -1.83859167      -1.83860541 
Au       1.83859613       1.83859167      -1.83860541 
Au      -1.83859613      -1.83859167      -1.83860541 
Au       1.83859613      -1.83859167       1.83860541 
Au      -1.83859613       1.83859167       1.83860541 
