20
-1553.636311
Au      -2.47896948      -2.47546835      -2.47512141 
Au       2.47896948       2.47546835      -2.47512141 
Au       2.47896948      -2.47546835       2.47512141 
Au      -2.47896948       2.47546835       2.47512141 
Au      -2.47896948      -2.47546835       2.47512141 
Au       2.47896948       2.47546835       2.47512141 
Au      -2.47896948       2.47546835      -2.47512141 
Au       2.47896948      -2.47546835      -2.47512141 
Au      -0.00000000      -1.90454642      -1.90443940 
Au       0.00000000       1.90454642      -1.90443940 
Au       0.00000000      -1.90454642       1.90443940 
Au       0.00000000       1.90454642       1.90443940 
Au      -1.83877628       0.00000000      -1.90654974 
Au      -1.83877628       0.00000000       1.90654974 
Au       1.83877628       0.00000000      -1.90654974 
Au       1.83877628       0.00000000       1.90654974 
Au      -1.83827349      -1.90652708      -0.00000000 
Au       1.83827349      -1.90652708      -0.00000000 
Au      -1.83827349       1.90652708       0.00000000 
Au       1.83827349       1.90652708       0.00000000 
