20
-1544.800755
Au       1.33931051       1.33931048       1.33931044 
Au      -1.33931053      -1.33931049       1.33931045 
Au      -1.33931053       1.33931049      -1.33931045 
Au       1.33931052      -1.33931049      -1.33931045 
Au       1.33931053       1.33931049      -1.33931045 
Au      -1.33931051      -1.33931048      -1.33931044 
Au       1.33931053      -1.33931049       1.33931045 
Au      -1.33931052       1.33931049       1.33931045 
Au       0.00000001       2.92036588       2.92036589 
Au      -0.00000000      -2.92036588       2.92036588 
Au       0.00000000       2.92036588      -2.92036588 
Au      -0.00000001      -2.92036588      -2.92036589 
Au       2.92036586       0.00000002       2.92036587 
Au       2.92036586      -0.00000001      -2.92036587 
Au      -2.92036586       0.00000001       2.92036587 
Au      -2.92036586      -0.00000002      -2.92036587 
Au       2.92036585       2.92036585       0.00000001 
Au      -2.92036585       2.92036585       0.00000001 
Au       2.92036585      -2.92036585      -0.00000001 
Au      -2.92036585      -2.92036585      -0.00000001 
