20
-1551.956607
Au      -0.00000000      -0.00000000       1.27429624 
Au      -0.00000000      -0.00000000      -1.27429624 
Au      -0.00000000      -0.00000000      -3.84129922 
Au      -0.00000000      -0.00000000       3.84129922 
Au       1.31318618       1.94901312      -2.48628825 
Au      -1.31318618      -1.94901312      -2.48628825 
Au      -1.31318829       1.94899491      -2.48632174 
Au       1.31318829      -1.94899491      -2.48632174 
Au      -1.31318829       1.94899491       2.48632174 
Au       1.31318829      -1.94899491       2.48632174 
Au       1.31318618       1.94901312       2.48628825 
Au      -1.31318618      -1.94901312       2.48628825 
Au       1.97835588      -1.31210734      -0.00000000 
Au      -1.97835588       1.31210734       0.00000000 
Au       1.29200086       3.80967762       0.00000000 
Au      -1.29200086      -3.80967762       0.00000000 
Au      -1.97841398      -1.31204474      -0.00000000 
Au       1.97841398       1.31204474      -0.00000000 
Au      -1.29207532       3.80977543      -0.00000000 
Au       1.29207532      -3.80977543       0.00000000 
