20
-1544.881796
Au      -4.46919117      -0.00000000      -0.00000000 
Au       4.46919117      -0.00000000       0.00000000 
Au       0.00000000      -4.46919117      -0.00000000 
Au       0.00000000       4.46919117      -0.00000000 
Au       0.00000000      -0.00000000      -4.46919117 
Au      -0.00000000      -0.00000000       4.46919117 
Au      -1.90614682       0.00000000      -0.00000000 
Au       1.90614682      -0.00000000       0.00000000 
Au       0.00000000      -1.90614682      -0.00000000 
Au      -0.00000000       1.90614682      -0.00000000 
Au      -0.00000000      -0.00000000      -1.90614682 
Au       0.00000000       0.00000000       1.90614682 
Au      -1.86365419      -1.86365419      -1.86365419 
Au       1.86365419       1.86365419      -1.86365419 
Au       1.86365419      -1.86365419       1.86365419 
Au      -1.86365419       1.86365419       1.86365419 
Au      -1.86365419      -1.86365419       1.86365419 
Au       1.86365419       1.86365419       1.86365419 
Au      -1.86365419       1.86365419      -1.86365419 
Au       1.86365419      -1.86365419      -1.86365419 
