20
-1544.881795
Au      -1.90617258      -0.00000000      -0.00000000 
Au       1.90617258       0.00000000       0.00000000 
Au      -0.00000000      -1.90617258       0.00000000 
Au       0.00000000       1.90617258      -0.00000000 
Au      -0.00000000       0.00000000      -1.90617258 
Au       0.00000000      -0.00000000       1.90617258 
Au       4.46915230      -0.00000000      -0.00000000 
Au      -4.46915230       0.00000000       0.00000000 
Au      -0.00000000       4.46915230       0.00000000 
Au       0.00000000      -4.46915230      -0.00000000 
Au      -0.00000000       0.00000000       4.46915230 
Au       0.00000000      -0.00000000      -4.46915230 
Au      -1.86370760      -1.86370760      -1.86370760 
Au       1.86370760       1.86370760      -1.86370760 
Au       1.86370760      -1.86370760       1.86370760 
Au      -1.86370760       1.86370760       1.86370760 
Au      -1.86370760      -1.86370760       1.86370760 
Au       1.86370760       1.86370760       1.86370760 
Au      -1.86370760       1.86370760      -1.86370760 
Au       1.86370760      -1.86370760      -1.86370760 
