20
-1545.254021
Au      -2.53736852      -2.55471824      -2.53873208 
Au       2.55389970       2.53509729      -2.53547942 
Au       2.52216204      -2.52024689       2.51984810 
Au      -2.53788454       2.53891253       2.55490847 
Au      -2.55389970      -2.53509729       2.53547942 
Au       2.53736852       2.55471824       2.53873208 
Au      -2.52216205       2.52024689      -2.51984810 
Au       2.53788454      -2.53891253      -2.55490847 
Au      -0.00027581       2.77541601       2.77574002 
Au      -0.01438300      -2.75370126       2.75401426 
Au       0.01438300       2.75370123      -2.75401425 
Au       0.00027581      -2.77541598      -2.77574004 
Au       2.76027297       0.01557632       2.75864369 
Au       2.77873532      -0.00174985      -2.77684599 
Au      -2.77873534       0.00174985       2.77684601 
Au      -2.76027294      -0.01557633      -2.75864371 
Au       2.77789021       2.77571580       0.00150363 
Au      -2.76004851       2.75815945       0.01585154 
Au       2.76004853      -2.75815943      -0.01585154 
Au      -2.77789022      -2.77571582      -0.00150363 
