20
-1549.369596
Au      -0.00000000       0.00000000       1.25700144 
Au      -0.00000001       0.00000001      -1.25700145 
Au      -0.00000000      -0.00000000       3.80532464 
Au      -0.00000000       0.00000000      -3.80532464 
Au       1.68856230       1.68856231      -2.25871661 
Au      -1.68856229      -1.68856231      -2.25871661 
Au      -1.68881352       1.68881353      -2.25818803 
Au       1.68881351      -1.68881352      -2.25818802 
Au      -1.68881352       1.68881353       2.25818803 
Au       1.68881351      -1.68881353       2.25818803 
Au       1.68856230       1.68856231       2.25871661 
Au      -1.68856229      -1.68856231       2.25871661 
Au      -3.10796703       1.28988645      -0.00000000 
Au       3.10796703      -1.28988645       0.00000000 
Au      -1.28987824      -3.10777562       0.00000000 
Au       1.28987824       3.10777561      -0.00000000 
Au       3.10777561       1.28987823       0.00000000 
Au      -3.10777559      -1.28987823       0.00000000 
Au       1.28988645      -3.10796703       0.00000000 
Au      -1.28988645       3.10796703      -0.00000000 
