20
-1553.998235
Au       1.60380863      -0.00000000       0.21094264 
Au       3.37921215      -0.00000000       2.15635468 
Au      -1.97288187      -0.00000000      -3.62242334 
Au       0.81695752       0.00000000       2.72619269 
Au       0.08905108      -0.00000000       5.25578329 
Au       4.86671933      -0.00000000      -2.83948120 
Au      -0.18558557       0.00000000      -1.69166840 
Au      -2.47262980      -0.00000000       5.77944683 
Au       3.13979842       0.00000000      -4.79118435 
Au      -4.26730000      -0.00000000       3.88516110 
Au      -1.71814852       0.00000000       3.28405425 
Au       4.16498386      -0.00000000      -0.33826057 
Au       2.33013639       0.00000000      -2.29305622 
Au      -0.96495544       0.00000000       0.79326886 
Au      -4.50669170       0.00000000      -3.06920742 
Au      -2.75720511      -0.00000000      -1.12528737 
Au       2.62867788      -0.00000000       4.65629613 
Au      -3.53139583      -0.00000000       1.37720913 
Au      -1.22212948      -0.00000000      -6.11640410 
Au       0.57957807       0.00000000      -4.23773662 
