20
-1553.735471
Au      -1.45106577      -0.00000000       5.52157353 
Au      -2.61806521      -0.00000000      -3.41208267 
Au       1.54559735       0.00000000      -1.68815453 
Au      -0.05116221       0.00000000      -3.78474637 
Au       2.54132955      -0.00000000      -4.12114403 
Au       0.56503133       0.00000000       0.73649886 
Au       3.13558205      -0.00000000       0.41587536 
Au      -5.18676222      -0.00000000      -3.14040855 
Au      -2.03053006       0.00000000       1.05596144 
Au       4.80555261      -0.00000000       2.47056369 
Au      -3.64271230       0.00000000      -1.02893246 
Au      -4.63821449       0.00000000       1.38825409 
Au       4.13255304      -0.00000000      -2.04800949 
Au      -3.04763492       0.00000000       3.46147863 
Au      -1.02740683       0.00000000      -1.33900599 
Au       1.14230642       0.00000000       5.28133239 
Au      -0.40977487       0.00000000       3.13660819 
Au       2.21703939      -0.00000000       2.88934624 
Au      -1.69047213      -0.00000000      -5.82282805 
Au       5.70880931      -0.00000000       0.02781970 
