20
-1553.599614
Au      -3.97649176      -0.00000000      -1.19574001 
Au      -1.43382847      -0.00000000      -0.52152410 
Au      -3.30561089      -0.00000000       1.33950880 
Au      -2.61357237      -0.00000000       3.83727170 
Au       3.59999966       0.00000000       0.88990734 
Au       4.28910075       0.00000000       3.47531823 
Au      -0.16171064      -0.00000000      -4.91712104 
Au      -4.60375478      -0.00000000      -3.77701669 
Au      -2.04063641      -0.00000000      -3.04824427 
Au      -2.69901031      -0.00000000      -5.55854764 
Au       0.47028659      -0.00000000      -2.34637513 
Au       5.47634142       0.00000000      -0.91874662 
Au       1.74697176       0.00000000       2.70483297 
Au       6.09861914       0.00000000       1.60465291 
Au      -0.75500247      -0.00000000       2.00454800 
Au       1.09906840       0.00000000       0.19711670 
Au      -6.45767782      -0.00000000      -1.93433470 
Au      -0.11637034      -0.00000000       4.59166203 
Au       2.40365786       0.00000000       5.24708476 
Au       2.97962069       0.00000000      -1.67425322 
