20
-1552.114348
Au       2.34245354      -0.00000000       2.42136991 
Au      -3.06422450      -0.00000000      -2.10733160 
Au      -1.02786319      -0.00000000      -3.75122317 
Au      -3.44077290      -0.00000000      -4.68053407 
Au       3.89860506      -0.00000000      -1.93253363 
Au       1.39113758      -0.00000000      -2.80423583 
Au      -2.63158205       0.00000000       0.49048250 
Au       3.39219044      -0.00000000      -4.47604908 
Au       4.25484817      -0.00000000       0.63995554 
Au      -0.60821924       0.00000000      -1.16051415 
Au       2.58246051       0.00000000       5.05343443 
Au      -5.04939142      -0.00000000      -0.43025774 
Au      -2.23952919       0.00000000       3.07498714 
Au       0.21363099      -0.00000000       4.00093946 
Au       0.97345758      -0.00000000      -5.41756900 
Au       1.80846631      -0.00000000      -0.23432627 
Au      -0.21541602       0.00000000       1.41378434 
Au      -4.19540456       0.00000000       4.75548330 
Au       0.80757644       2.12924360       2.57206897 
Au       0.80757644      -2.12924360       2.57206897 
