20
-1552.747926
Au       5.41681013       0.00000000      -0.39490520 
Au       0.17308389       0.00000000      -0.73775962 
Au      -3.58963307       0.00000000      -3.24192924 
Au      -0.11837488      -0.00000000       3.79848906 
Au      -2.44584104       0.00000000      -0.90520796 
Au      -5.29997843      -0.00000000       3.52740213 
Au       2.48528047      -0.00000000       3.92011220 
Au       2.78689468       0.00000000      -0.57691979 
Au       0.51072030      -0.00000000      -5.27512168 
Au       4.25572841      -0.00000000      -2.73045621 
Au      -2.71256701      -0.00000000       3.59005239 
Au      -1.27661838       0.00000000       1.41602695 
Au       1.33213216      -0.00000000       1.58637320 
Au      -3.96961470       0.00000000       1.26105791 
Au       3.98222729       0.00000000       1.78024077 
Au      -5.07673390      -0.00000000      -1.10863743 
Au      -0.97671395      -0.00000000      -3.11178634 
Au       1.64126183      -0.00000000      -2.94615467 
Au       1.44096809      -2.16494798       0.07456179 
Au       1.44096809       2.16494798       0.07456179 
