20
-1553.182352
Au       2.12518317       0.00000065      -0.37744702 
Au       0.16294604       0.00000026      -2.07775862 
Au      -5.12946760       0.00000085       2.38849509 
Au      -4.81181108      -0.00000044      -0.21583550 
Au      -2.36781962      -0.00000038      -1.23294981 
Au       1.62375976       0.00000005       2.18157350 
Au       0.64301042       0.00000015      -4.64886672 
Au       4.11835309       0.00000038       1.30939493 
Au       5.07459002       0.00000001      -3.77793285 
Au      -2.74511854       0.00000008       1.34659533 
Au       4.60589941       0.00000050      -1.23554018 
Au       2.61109433       0.00000047      -2.95966454 
Au      -1.82631557      -0.00000068      -3.77838523 
Au       3.62884554      -0.00000061       3.85165992 
Au      -0.89025097      -0.00000028       3.15554221 
Au       1.18463723      -0.00000176       4.74112140 
Au      -0.31378315       0.00000026       0.47328098 
Au      -1.32655528      -0.00000050      -6.32746830 
Au      -3.18359827       1.32279610       3.59209251 
Au      -3.18359894      -1.32279514       3.59209289 
