20
-1553.030095
Au       1.22090234       0.33485236       1.80430825 
Au      -0.10212443       0.20387969      -3.23726986 
Au       0.53273780       0.32423931      -0.69197164 
Au       3.75589309      -0.15073926       2.11166527 
Au      -4.58067509      -0.21166569       5.16287894 
Au      -3.82690670       0.10362646       0.54237108 
Au      -3.08278908       0.02616386       3.07216518 
Au       2.02275463      -0.23282115       4.21520679 
Au      -1.30801262       0.23666040       1.18569940 
Au      -4.56272435       0.06494526      -2.00068083 
Au      -6.33534830      -0.04081770      -0.08440267 
Au      -2.62092900       0.13419969      -3.85222544 
Au      -5.10356266      -0.01412764      -4.54328558 
Au       2.95066616       1.15290159      -0.02436219 
Au       2.44655213      -1.40210801       0.19206182 
Au      -0.53390103      -0.00086665       3.69671260 
Au      -1.98958731       0.24169859      -1.33965436 
Au       4.57098633      -0.64176915       4.50922630 
Au       1.80920524      -1.35544236      -2.32847316 
Au       2.22055319       1.22719041      -2.53204160 
