20
-1552.043035
Au      -0.42339682      -0.00000000      -2.60857873 
Au      -0.81500848       0.00000000       2.82012695 
Au      -2.99681956       0.00000000       1.24239515 
Au       1.52947713       0.00000000       1.55527369 
Au       1.72549297      -0.00000000      -1.04469246 
Au      -4.99756524      -0.00000000      -2.81185410 
Au      -5.34829106       0.00000000       2.36530319 
Au      -2.83905445       0.00000000      -1.34207232 
Au      -2.65649724      -0.00000000      -3.95029654 
Au       3.95438728       0.00000000       0.43400906 
Au       1.41706584      -0.00000000       4.17189302 
Au      -3.20527918       0.00000000       3.84682256 
Au      -0.65008643       0.00000000       0.09603773 
Au       1.98105238      -0.00000000      -3.65457508 
Au       4.11952513       0.00000000      -2.17443289 
Au       3.74983883      -0.00000000       3.03803613 
Au       2.45223807      -2.14839178       0.22470754 
Au       2.45223807       2.14839178       0.22470754 
Au       0.27534137      -2.14826233      -1.21640520 
Au       0.27534137       2.14826233      -1.21640520 
