20
-1549.233864
Au      -0.00004739      -0.00000754      -5.16322082 
Au      -0.00000574       0.00000097       4.89763956 
Au      -0.00004003      -0.00000222       1.23534026 
Au       0.00008514      -0.00000222      -1.36461237 
Au      -1.34517267       3.24427005      -2.82465405 
Au       1.34522900      -3.24424826      -2.82466640 
Au      -3.24424987      -1.34520522      -2.82464928 
Au       3.24426577       1.34520119      -2.82466784 
Au       0.72869542       1.75901925       3.08580161 
Au      -0.72869533      -1.75903329       3.08581845 
Au       1.75889081      -0.72860018       3.08577405 
Au      -1.75893922       0.72857502       3.08580478 
Au       1.35693843      -3.27644633       3.12583234 
Au      -1.35697032       3.27646965       3.12584510 
Au       3.27643535       1.35699233       3.12582258 
Au      -3.27646509      -1.35698898       3.12586121 
Au      -0.71607633      -1.73054560      -3.28824265 
Au       0.71609915       1.73054359      -3.28829219 
Au      -1.73053669       0.71609350      -3.28821761 
Au       1.73055964      -0.71608570      -3.28831672 
