20
-1552.063497
Au       2.18167757       0.00000000      -0.48656057 
Au       2.64910888       0.00000000      -3.06992818 
Au      -3.79453762      -0.00000000       3.44221669 
Au      -1.24820749      -0.00000000       2.80417847 
Au      -4.34736672       0.00000000      -3.49937329 
Au      -0.63770936      -0.00000000       0.23455529 
Au       0.69372700       0.00000000       4.54401780 
Au      -2.57189620      -0.00000000      -1.59530551 
Au      -3.15376186      -0.00000000       0.94324893 
Au      -1.82810915       0.00000000      -4.11623886 
Au       0.68470386       0.00000000      -4.78407051 
Au       3.89942008      -0.00000000       1.49692361 
Au       0.10494735       0.00000000      -2.25381874 
Au       1.32575435      -0.00000000       2.02389464 
Au       0.63781903       2.12585759      -0.70222104 
Au       0.63781903      -2.12585759      -0.70222104 
Au      -0.15991820       2.19899467       1.78186667 
Au      -0.15991820      -2.19899467       1.78186667 
Au       2.54322384       2.19352309       1.07848449 
Au       2.54322384      -2.19352309       1.07848449 
