20
-1555.592856
Au       3.25761745       0.00000122       1.29432533 
Au       2.60251414       0.00000120      -1.26004555 
Au      -1.25376901      -0.00000068       2.47806192 
Au       0.56847932      -0.00000293       0.53043548 
Au       1.38623836       0.00000198       3.13538703 
Au      -1.69650470       0.00000045      -2.67684301 
Au      -2.16162807      -0.00000422      -0.05727627 
Au       0.50813942      -0.00000147      -4.13051078 
Au       2.14910495      -2.12552365       0.20421992 
Au       2.14910612       2.12552413       0.20421908 
Au       0.43068432       1.36623693      -1.85572016 
Au       0.43068461      -1.36623479      -1.85572225 
Au       0.31622411      -2.18842845       2.22660334 
Au       0.31622543       2.18842856       2.22660248 
Au      -2.15084978      -2.25786482       1.29314657 
Au      -2.15084954       2.25786261       1.29314222 
Au      -2.17593188      -2.25333539      -1.41742510 
Au      -2.17592867       2.25333572      -1.41742137 
Au      -0.17477680       3.25812732      -0.10758897 
Au      -0.17477981      -3.25812370      -0.10758991 
