20
-1554.540749
Au       3.97219285       0.00000000      -2.84827776 
Au       2.40451625       0.00000000       2.04741154 
Au      -2.00558935      -0.00000000       2.10270778 
Au      -1.65418365       0.00000000      -1.69130695 
Au       0.07493073       0.00000000       0.51400613 
Au      -1.27243308      -0.00000000       4.60004088 
Au       1.37232523      -0.00000000      -3.06708477 
Au       2.43703474       0.00000000      -0.66242135 
Au       0.29748295      -1.83549626      -1.43364303 
Au       0.29748295       1.83549626      -1.43364303 
Au      -0.76715714       1.31726730      -3.80253879 
Au      -0.76715714      -1.31726730      -3.80253879 
Au       0.26503000      -1.31736724       2.92125431 
Au       0.26503000       1.31736724       2.92125431 
Au      -3.11687304      -1.30193543       0.07885825 
Au      -3.11687304       1.30193543       0.07885825 
Au       1.63319936       2.15716232       0.80173385 
Au       1.63319936      -2.15716232       0.80173385 
Au      -0.97607900       2.48788957       0.93679767 
Au      -0.97607900      -2.48788957       0.93679767 
