20
-1545.073652
Au       0.00000000      -0.00000000      -3.88465304 
Au       0.00000000      -0.00000000       3.88465304 
Au       0.00000000       0.00000000      -1.30220345 
Au       0.00000000      -0.00000000       1.30220345 
Au       1.28616318      -3.10505111      -1.29784527 
Au      -1.28616318       3.10505111      -1.29784527 
Au       3.10505111       1.28616318      -1.29784527 
Au      -3.10505111      -1.28616318      -1.29784527 
Au      -1.28616318      -3.10505111       1.29784527 
Au       1.28616318       3.10505111       1.29784527 
Au      -3.10505111       1.28616318       1.29784527 
Au       3.10505111      -1.28616318       1.29784527 
Au      -1.28616318       3.10505111       1.29784527 
Au       1.28616318      -3.10505111       1.29784527 
Au      -3.10505111      -1.28616318       1.29784527 
Au       3.10505111       1.28616318       1.29784527 
Au       1.28616318       3.10505111      -1.29784527 
Au      -1.28616318      -3.10505111      -1.29784527 
Au       3.10505111      -1.28616318      -1.29784527 
Au      -3.10505111       1.28616318      -1.29784527 
