20
-1554.389354
Au      -2.39843029       0.00000050      -2.74771069 
Au      -1.92949482      -0.00000050      -0.11065874 
Au      -4.40101412      -0.00000008      -1.07887877 
Au      -1.64549634       0.00000016       2.49287995 
Au      -4.07108655      -0.00000016       1.50857541 
Au       1.66836178       0.00000010      -0.70061262 
Au      -2.88566426      -2.18532782      -1.37777516 
Au      -2.88566459       2.18532748      -1.37777429 
Au       3.45522810       1.30966484      -2.12127691 
Au       3.45522829      -1.30966497      -2.12127677 
Au       0.07235655      -1.36152239       1.01898329 
Au       0.07235650       1.36152219       1.01898323 
Au       0.93726677       3.76927356       1.54136607 
Au       0.93726672      -3.76927309       1.54136609 
Au      -0.34243205       1.35233078      -1.80946011 
Au      -0.34243204      -1.35233077      -1.80945982 
Au       1.68116589      -2.65145423      -0.69855705 
Au       1.68116596       2.65145407      -0.69855746 
Au      -0.86850371       3.47103619      -0.32059576 
Au      -0.86850405      -3.47103585      -0.32059583 
