20
-1552.314965
Au      -3.59987449       0.00000000      -0.25421855 
Au      -1.06584400       0.00000000      -1.32082799 
Au       1.47933071      -0.00000000      -1.85458575 
Au      -1.36919145       0.00000000       1.35550426 
Au       0.50936443      -1.44413882       0.21334059 
Au       0.50936444       1.44413880       0.21334059 
Au       3.10761404       1.30696356      -0.26648481 
Au       3.10761403      -1.30696355      -0.26648480 
Au       2.11776931      -1.30020648       2.30840855 
Au       2.11776931       1.30020649       2.30840855 
Au       2.08208206       3.46495584       0.85224164 
Au       2.08208206      -3.46495584       0.85224163 
Au      -3.53396451      -1.32168987       1.98711019 
Au      -3.53396451       1.32168987       1.98711019 
Au      -2.06825020       2.13747539      -0.07599239 
Au      -2.06825020      -2.13747539      -0.07599239 
Au       3.09518546      -3.60773913      -1.56613657 
Au       3.09518547       3.60773914      -1.56613658 
Au      -3.03201097       1.32729890      -2.41542318 
Au      -3.03201097      -1.32729890      -2.41542318 
