20
-1553.893351
Au       0.36119345      -0.00044676      -2.12284849 
Au       2.60002878       0.00021004      -0.64520416 
Au      -3.81218678       1.29924872      -3.16566337 
Au      -3.80659396      -1.29065201      -3.16189120 
Au       2.42270987      -1.30060427       1.65375609 
Au       2.41556381       1.29832485       1.65460157 
Au       1.02325328       3.47615961       1.47321169 
Au       1.03179214      -3.47956356       1.47234466 
Au      -1.83073032      -1.31055396      -1.45552748 
Au      -1.83279479       1.31084240      -1.46359090 
Au       2.40157993      -2.66375171      -0.63937734 
Au       2.39784244       2.66320957      -0.63674033 
Au       2.45020528      -1.31113486      -2.99136137 
Au       2.44969007       1.31183814      -2.99059161 
Au       0.21568310       1.32455171       0.20338253 
Au       0.22119295      -1.32646112       0.20613820 
Au       0.29695660      -2.71596545      -2.18875354 
Au       0.29653643       2.71578385      -2.19020841 
Au      -2.01844496      -3.18127826      -3.30038710 
Au      -2.01460596       3.18024308      -3.31089753 
