20
-1553.540372
Au       1.97726476      -1.30859469      -2.32641409 
Au       1.97726414       1.30859440      -2.32641330 
Au      -2.03910946      -1.30172282       0.13108574 
Au      -2.03911397       1.30171509       0.13108450 
Au      -1.70190934       3.44025368       1.58217654 
Au      -1.70190883      -3.44025199       1.58217915 
Au      -2.65788500       1.29129706       2.68415429 
Au      -2.65788573      -1.29129537       2.68415518 
Au      -0.44473910      -1.29731555      -3.39033081 
Au      -0.44474028       1.29731804      -3.39032855 
Au      -0.11911057       1.32265203       2.01065862 
Au      -0.11911062      -1.32265330       2.01065954 
Au       2.33416210      -3.55236730      -1.01190754 
Au       2.33416255       3.55236838      -1.01191031 
Au      -0.08117252      -2.51442124      -1.09797791 
Au      -0.08117155       2.51442122      -1.09797817 
Au       1.89629587       1.31262979       0.31062314 
Au       1.89629350      -1.31263057       0.31062253 
Au       0.83620874       3.61197106       1.10793307 
Au       0.83620533      -3.61196792       1.10792841 
