20
-1555.581085
Au       0.87397135       2.03496112       1.94502587 
Au      -1.33681727      -0.67861409       2.10237288 
Au      -1.60033061       1.68346400      -0.47952920 
Au       0.85263007      -2.02024739      -1.64954319 
Au      -1.24998519      -1.81202844      -3.20388050 
Au       2.31342002       0.17099860      -1.80680342 
Au       2.54920719      -1.61341144       0.32139580 
Au      -1.78729000       2.01409830       2.15816147 
Au      -1.83922456      -1.01902164      -0.69005534 
Au       0.45004081       0.01235542       0.13263859 
Au       0.08595079      -2.51512625       0.88028473 
Au       1.11139141       2.36167057      -0.80474346 
Au      -0.25526828       0.50304335      -2.39449273 
Au       1.37052091      -0.62864787       2.49320810 
Au       2.88789592       0.94897509       0.69157111 
Au      -3.43011468       0.37083965       0.91366700 
Au      -0.55745134       3.81283152       0.64168742 
Au      -1.26757717      -3.51343736      -1.17125396 
Au      -0.29217739       0.85675850       3.98366123 
Au       1.12120800      -0.96946164      -4.06337242 
