20
-1544.889708
Au      -1.83742551      -1.83742550      -1.83742550 
Au       1.83742550       1.83742550      -1.83742549 
Au       1.83742551      -1.83742551       1.83742552 
Au      -1.83742553       1.83742553       1.83742553 
Au       1.83769258       1.83769258       1.83769258 
Au      -1.83769258      -1.83769258       1.83769258 
Au      -1.83769258       1.83769258      -1.83769258 
Au       1.83769259      -1.83769259      -1.83769259 
Au       4.67263654       0.00000000      -0.00000000 
Au      -4.67263654      -0.00000000      -0.00000000 
Au       0.00000000       4.67263654      -0.00000000 
Au      -0.00000000      -4.67263654       0.00000000 
Au       0.00000000      -0.00000000       4.67263654 
Au      -0.00000000       0.00000000      -4.67263654 
Au       1.96458093       0.00000002      -0.00000001 
Au      -1.96458093      -0.00000002      -0.00000002 
Au       0.00000002       1.96458093      -0.00000002 
Au      -0.00000001      -1.96458093      -0.00000000 
Au       0.00000001      -0.00000001       1.96458093 
Au      -0.00000000       0.00000000      -1.96458093 
