20
-1554.810396
Au      -3.45053383      -0.62401540      -2.12235028 
Au       3.45053379       0.62401539      -2.12235025 
Au       0.13443058      -3.30844042      -0.98096407 
Au      -0.13443059       3.30844043      -0.98096409 
Au       2.75368507       0.09444711       0.33820883 
Au      -2.75368515      -0.09444709       0.33820884 
Au       0.42746913       1.31964341       0.64994999 
Au      -0.42746888      -1.31964526       0.64995186 
Au       1.31690666      -0.49481838       2.47458712 
Au      -1.31690670       0.49481834       2.47458716 
Au       0.69617057       1.90039095       3.35656966 
Au      -0.69617057      -1.90039093       3.35656962 
Au      -0.81014618      -1.02818529      -2.08676610 
Au       0.81014670       1.02818613      -2.08676702 
Au       1.79115336      -1.37796559      -1.67192262 
Au      -1.79115387       1.37796662      -1.67192351 
Au      -2.38680413      -2.57055236      -0.69367001 
Au       2.38680409       2.57055232      -0.69367003 
Au       1.96394376      -2.43021514       0.73635745 
Au      -1.96394383       2.43021518       0.73635746 
