20
-1545.073653
Au       0.00000000      -0.00000000      -1.30219162 
Au       0.00000000      -0.00000000       1.30219162 
Au       0.00000000      -0.00000000       3.88457507 
Au       0.00000000      -0.00000000      -3.88457507 
Au      -3.10507798       1.28615093       1.29784235 
Au       3.10507798      -1.28615093       1.29784235 
Au      -1.28615098      -3.10507802       1.29784234 
Au       1.28615098       3.10507802       1.29784234 
Au       3.10507802       1.28615098      -1.29784234 
Au      -3.10507802      -1.28615098      -1.29784234 
Au       1.28615093      -3.10507797      -1.29784235 
Au      -1.28615093       3.10507797      -1.29784235 
Au       3.10507798      -1.28615093      -1.29784235 
Au      -3.10507798       1.28615093      -1.29784235 
Au       1.28615098       3.10507802      -1.29784234 
Au      -1.28615098      -3.10507802      -1.29784234 
Au      -3.10507802      -1.28615098       1.29784234 
Au       3.10507802       1.28615098       1.29784234 
Au      -1.28615093       3.10507797       1.29784235 
Au       1.28615093      -3.10507797       1.29784235 
