20
-1555.26791
Au      -3.04659511      -2.51120569      -2.22078033 
Au       1.92827151       1.71125011      -0.61887605 
Au       2.54873553      -2.27171143       1.60694560 
Au      -2.17305524       2.46718553       2.30233154 
Au      -2.11085417      -1.13898246      -0.20248358 
Au      -0.47865278       0.76575321      -1.27066092 
Au       0.63761830      -1.43574451      -0.02089002 
Au      -0.87969908       0.27887963       1.59909776 
Au       3.91686443       0.99514297      -2.17891414 
Au      -2.78171457       0.09996566      -2.41241767 
Au      -0.52810681       4.47679001       2.38469368 
Au       0.57508382      -3.91939312       1.22952501 
Au       0.33979020       2.10123226       3.06743940 
Au       1.71619482      -0.39992183      -2.29088196 
Au      -2.68789123       1.42531763      -0.03392514 
Au       3.27548711      -0.50323464      -0.15066355 
Au      -1.12779541      -3.50042388      -0.70110091 
Au      -0.24412983       2.67011147       0.51350151 
Au      -0.62257053      -1.56475571      -2.44547840 
Au       1.74301905       0.25374478       1.84353817 
