20
-1552.016813
Au      -1.54637364      -1.54637364      -1.54637364 
Au       1.54637364       1.54637364      -1.54637364 
Au       1.54637364      -1.54637364       1.54637364 
Au      -1.54637364       1.54637364       1.54637364 
Au       0.94590915       0.94590915       0.94590915 
Au      -0.94590915      -0.94590915       0.94590915 
Au      -0.94590915       0.94590915      -0.94590915 
Au       0.94590915      -0.94590915      -0.94590915 
Au      -5.76344067      -0.00000000      -0.00000000 
Au       5.76344067       0.00000000       0.00000000 
Au       0.00000000      -5.76344067       0.00000000 
Au      -0.00000000       5.76344067       0.00000000 
Au       0.00000000      -0.00000000      -5.76344067 
Au       0.00000000       0.00000000       5.76344067 
Au      -3.18889900      -0.00000000       0.00000000 
Au       3.18889900       0.00000000       0.00000000 
Au       0.00000000      -3.18889900       0.00000000 
Au      -0.00000000       3.18889900      -0.00000000 
Au       0.00000000      -0.00000000      -3.18889900 
Au       0.00000000      -0.00000000       3.18889900 
