20
-1551.418171
Au      -0.90207489      -0.90207146      -0.90207673 
Au       0.90205899       0.90205697      -0.90205522 
Au       0.90208575      -0.90207633       0.90206311 
Au      -0.90207231       0.90208093       0.90206892 
Au       1.61189253       1.61185838       1.61192259 
Au      -1.61189075      -1.61186704       1.61190522 
Au      -1.61191656       1.61186670      -1.61189482 
Au       1.61188687      -1.61188678      -1.61190279 
Au      -2.71220899      -2.71559374      -0.77295127 
Au       2.71221725       2.71561343      -0.77295768 
Au       2.71222289      -2.71560451       0.77295926 
Au      -2.71221256       2.71561287       0.77296289 
Au      -0.77296173      -2.71222262      -2.71560643 
Au      -0.77295874       2.71223215       2.71560565 
Au       0.77295720       2.71222413      -2.71560435 
Au       0.77295323      -2.71221165       2.71558207 
Au      -2.71559838      -0.77295650      -2.71221479 
Au       2.71560646      -0.77295932       2.71220374 
Au      -2.71558346       0.77294913       2.71219808 
Au       2.71559720       0.77295524      -2.71220745 
