20
-1546.375287
Au       0.00000000      -0.00000007       0.00000000 
Au       0.00000000      -0.00000002      -2.60186101 
Au       0.00000000      -0.00000002       2.60186101 
Au       0.00000000      -0.00000004       5.19754109 
Au      -0.00000000      -0.00000004      -5.19754109 
Au      -2.37373146       1.37047457      -0.00000000 
Au      -0.00000000      -2.74094901      -0.00000000 
Au       2.37373146       1.37047457      -0.00000000 
Au      -3.83292341       3.68855930       0.00000000 
Au      -1.27792445      -5.16368871      -0.00000000 
Au       5.11084794       1.47512927       0.00000000 
Au      -5.11084794       1.47512927       0.00000000 
Au       3.83292341       3.68855930       0.00000000 
Au       1.27792445      -5.16368871       0.00000000 
Au       2.56467522      -2.95419083      -0.00000000 
Au       1.27606670       3.69816943      -0.00000000 
Au      -3.84074188      -0.74397844      -0.00000000 
Au       3.84074188      -0.74397844      -0.00000000 
Au      -2.56467522      -2.95419083      -0.00000000 
Au      -1.27606670       3.69816943      -0.00000000 
