20
-1550.296365
Au       0.00000031       0.29861989       0.00000000 
Au      -0.00000015      -1.14538912       4.69846058 
Au      -0.00000015      -1.14538912      -4.69846058 
Au       0.00000139      -1.23328375       2.13593758 
Au       0.00000139      -1.23328375      -2.13593758 
Au       3.92930367      -1.95494438       0.00000000 
Au      -0.00000034       4.84893417      -0.00000000 
Au      -3.92930392      -1.95494322      -0.00000000 
Au       5.25148800       0.24666636       0.00000000 
Au      -2.58274181       4.83499370      -0.00000000 
Au      -2.73482731      -4.22358497       0.00000000 
Au       2.73482536      -4.22358593      -0.00000000 
Au      -5.25148852       0.24666926      -0.00000000 
Au       2.58273959       4.83499779       0.00000000 
Au      -2.64695625       0.34702086      -0.00000000 
Au       1.30794797      -2.02000814      -0.00000000 
Au       1.30282544       2.57474671       0.00000000 
Au      -1.30282302       2.57474684      -0.00000000 
Au       2.64695428       0.34702241       0.00000000 
Au      -1.30794592      -2.02000560       0.00000000 
