20
-1549.364491
Au       0.00000000       0.00000572      -0.00133480 
Au      -0.00000000      -0.00000420       2.57432262 
Au      -0.00000000      -0.00000076      -2.57749018 
Au      -0.00000000      -0.00000127       5.17401674 
Au      -0.00000000      -0.00000170      -5.17736647 
Au      -3.91358583       2.25950834      -0.01127042 
Au      -0.00000000      -4.51902709      -0.01126842 
Au       3.91358583       2.25950834      -0.01127042 
Au      -2.66462329      -0.01697211       0.00362581 
Au       1.34701853      -2.29915884       0.00362860 
Au       1.31761659       2.31614364       0.00362937 
Au      -1.31761659       2.31614364       0.00362937 
Au       2.66462329      -0.01697211       0.00362581 
Au      -1.34701853      -2.29915884       0.00362860 
Au       2.23203675      -1.28867110      -2.24179336 
Au       0.00000000       2.57733356      -2.24179506 
Au      -2.23203675      -1.28867110      -2.24179336 
Au       2.23291615      -1.28917406       2.24842345 
Au      -0.00000000       2.57834398       2.24842866 
Au      -2.23291615      -1.28917406       2.24842345 
