20
-1544.788171
Au       0.00000034       0.00000057       0.00000006 
Au      -0.00000012      -0.00000010       5.18495285 
Au      -0.00000012      -0.00000010      -5.18495077 
Au      -0.00000024      -0.00000017       2.59552979 
Au      -0.00000024      -0.00000017      -2.59552635 
Au       2.27806802      -1.31522007       0.00000371 
Au       0.00001572       2.63047447       0.00000371 
Au      -2.27805967      -1.31523274       0.00000371 
Au      -2.55758780       2.95697706       0.00000047 
Au      -1.28201904      -3.69342388       0.00000047 
Au       3.83960789       0.73642145       0.00000048 
Au      -3.83960823       0.73644309       0.00000048 
Au       2.55756599       2.95698728       0.00000048 
Au       1.28201803      -3.69342614       0.00000047 
Au       2.24467756      -1.29596537      -2.56494193 
Au      -0.00000014       2.59193042      -2.56494190 
Au      -2.24467770      -1.29596534      -2.56494183 
Au       2.24467776      -1.29596547       2.56493541 
Au      -0.00000013       2.59193065       2.56493538 
Au      -2.24467790      -1.29596545       2.56493531 
