20
-1538.497324
Au       0.35087490      -0.77584333       0.00039684 
Au      -0.25791258      -0.02326222       4.53283026 
Au      -0.25768803      -0.02243195      -4.53188468 
Au       0.14347043       0.63139262      -2.11288112 
Au       0.14334112       0.63106720       2.11393716 
Au      -1.27110094       1.26929615       0.00053958 
Au      -0.14315993      -3.27022709       0.00007937 
Au       1.29007068       1.57821104       0.00065779 
Au       7.00162992      -4.04237329      -3.87435521 
Au      -0.00008536       7.41691588      -2.96284685 
Au      -6.25051223      -3.65600413      -2.00542170 
Au       7.00100421      -4.04198701       3.87420108 
Au       0.00067313       7.21819929       1.99632038 
Au      -6.40261776      -3.70286661       2.95622423 
Au       7.00398650      -4.04375842       1.29044091 
Au      -0.00004063       9.71338212       1.43702778 
Au      -6.90510486      -3.98735801       0.47238690 
Au       7.00214466      -4.04261991      -1.29028678 
Au       0.00024617       7.97475110      -0.47453782 
Au      -8.44921938      -4.82448343      -1.42282812 
