20
-1551.470058
Au      -0.00000000      -0.00000002      -0.00000000 
Au      -0.00000000       0.00000001       5.27734290 
Au       0.00000000       0.00000001      -5.27734290 
Au      -0.00000000       0.00000004       2.66390372 
Au       0.00000000       0.00000004      -2.66390372 
Au       2.35984567      -1.36245750       0.00000000 
Au       0.00000000       2.72491496       0.00000000 
Au      -2.35984567      -1.36245750       0.00000000 
Au      -1.30847034       2.25174663       2.19386866 
Au      -1.29583461      -2.25904188       2.19386864 
Au       2.60430496       0.00729525       2.19386868 
Au      -1.30847034       2.25174663      -2.19386866 
Au      -1.29583461      -2.25904188      -2.19386864 
Au       2.60430496       0.00729525      -2.19386868 
Au      -2.60430496       0.00729525       2.19386868 
Au       1.30847034       2.25174663       2.19386866 
Au       1.29583461      -2.25904188       2.19386864 
Au      -2.60430496       0.00729525      -2.19386868 
Au       1.30847034       2.25174663      -2.19386866 
Au       1.29583461      -2.25904188      -2.19386864 
