20
-1545.073652
Au      -0.00000000      -0.00000000       1.30216719 
Au      -0.00000000       0.00000000      -1.30216719 
Au      -0.00000000      -0.00000000       3.88444966 
Au      -0.00000000       0.00000000      -3.88444966 
Au       1.28617468      -3.10507414       1.29780728 
Au      -1.28617468       3.10507414       1.29780728 
Au       3.10507414       1.28617468       1.29780728 
Au      -3.10507414      -1.28617468       1.29780728 
Au      -1.28617468      -3.10507414      -1.29780728 
Au       1.28617468       3.10507414      -1.29780728 
Au      -3.10507414       1.28617468      -1.29780728 
Au       3.10507414      -1.28617468      -1.29780728 
Au      -1.28617468       3.10507414      -1.29780728 
Au       1.28617468      -3.10507414      -1.29780728 
Au      -3.10507414      -1.28617468      -1.29780728 
Au       3.10507414       1.28617468      -1.29780728 
Au       1.28617468       3.10507414       1.29780728 
Au      -1.28617468      -3.10507414       1.29780728 
Au       3.10507414      -1.28617468       1.29780728 
Au      -3.10507414       1.28617468       1.29780728 
