20
-1551.456814
Au      -0.00000000       0.00000001       0.00000009 
Au      -0.00000000      -0.00000000       2.70226816 
Au      -0.00000000      -0.00000000      -2.70226723 
Au       0.00000000      -0.00000000      -5.31115435 
Au       0.00000000      -0.00000000       5.31115553 
Au      -2.39440097       1.38240804       0.00000329 
Au       0.00000000      -2.76481608       0.00000329 
Au       2.39440097       1.38240804       0.00000329 
Au       1.29457844       2.25591227      -2.18470906 
Au      -2.60096655      -0.00681832      -2.18470907 
Au       1.30638812      -2.24909395      -2.18470907 
Au       1.29458110       2.25591075       2.18470706 
Au      -2.60096657      -0.00681525       2.18470706 
Au       1.30638547      -2.24909550       2.18470706 
Au      -1.30638812      -2.24909395      -2.18470907 
Au      -1.29457844       2.25591227      -2.18470906 
Au       2.60096655      -0.00681832      -2.18470907 
Au      -1.30638547      -2.24909550       2.18470706 
Au      -1.29458110       2.25591075       2.18470706 
Au       2.60096657      -0.00681525       2.18470706 
