20
-1551.568282
Au      -0.05121877       0.10680124      -2.16750065 
Au      -0.05121877       0.10680124       2.16750065 
Au      -1.35579249       0.85753680       0.00000000 
Au      -0.08310382      -1.39149511       0.00000000 
Au       1.22067978       0.88138878       0.00000000 
Au      -5.29089501       3.13888201      -0.00000000 
Au      -0.01875827      -5.94582538      -0.00000000 
Au       5.13648756       3.17444285      -0.00000000 
Au      -1.32857272      -3.69776643      -0.00000000 
Au       3.83613437       0.90102438      -0.00000000 
Au      -2.69965840       3.14717540       0.00000000 
Au       2.53893917       3.14548104       0.00000000 
Au       1.26033919      -3.66346266       0.00000000 
Au      -3.99350460       0.86425935      -0.00000000 
Au      -3.91717915      -3.77170848      -0.00000000 
Au       2.55611682      -1.35511191      -0.00000000 
Au      -0.09921209       3.13912605       0.00000000 
Au       1.23691138       5.37290662       0.00000000 
Au       3.85278796      -3.58117712      -0.00000000 
Au      -2.74928217      -1.42927870      -0.00000000 
