20
-1550.586783
Au       0.00011025      -0.53174575       2.14946490 
Au       0.00011025      -0.53174575      -2.14946490 
Au       1.31364737      -1.31266357      -0.00000000 
Au       0.00032852       0.98090034      -0.00000000 
Au      -1.31369904      -1.31218814       0.00000000 
Au       5.84338477      -1.49617063       0.00000000 
Au      -0.00027563       5.53474848      -0.00000000 
Au      -5.84338280      -1.49602372       0.00000000 
Au      -1.30917418       3.31108424      -0.00000000 
Au      -3.55937487      -2.71506174       0.00000000 
Au       3.64039484      -0.10938547      -0.00000000 
Au      -3.64054233      -0.10907643       0.00000000 
Au       1.30917318       3.31142321      -0.00000000 
Au       3.55949606      -2.71534467      -0.00000000 
Au      -5.97494731       1.10099322       0.00000000 
Au       1.29470326      -3.96067722       0.00000000 
Au       3.74259505       2.45496411      -0.00000000 
Au      -3.74284125       2.45524149       0.00000000 
Au       5.97476357       1.10088359       0.00000000 
Au      -1.29446969      -3.96015556      -0.00000000 
