20
-1555.942374
Au       0.00000000       0.00000000       2.03899709 
Au       0.00000000       0.00000000      -2.03899709 
Au       3.54004624      -2.04384665      -0.00000000 
Au      -0.00000000       4.08769331      -0.00000000 
Au      -3.54004624      -2.04384665      -0.00000000 
Au      -3.54007822       2.04386512      -0.00000000 
Au       0.00000000      -4.08773023       0.00000000 
Au       3.54007822       2.04386512      -0.00000000 
Au      -1.30910644       2.26735790      -1.38272329 
Au      -1.30903632      -2.26739838      -1.38272329 
Au       2.61814276       0.00004048      -1.38272329 
Au      -1.30910644       2.26735790       1.38272329 
Au      -1.30903632      -2.26739838       1.38272329 
Au       2.61814276       0.00004048       1.38272329 
Au      -2.61814276       0.00004048      -1.38272329 
Au       1.30910644       2.26735790      -1.38272329 
Au       1.30903632      -2.26739838      -1.38272329 
Au      -2.61814276       0.00004048       1.38272329 
Au       1.30910644       2.26735790       1.38272329 
Au       1.30903632      -2.26739838       1.38272329 
