20
-1545.073653
Au       0.00004732      -0.00008296       1.30210615 
Au       0.00004732      -0.00008296      -1.30210615 
Au      -0.00000923       0.00003503      -3.88440874 
Au      -0.00000923       0.00003503       3.88440874 
Au      -1.28634183       3.10532924      -1.29783684 
Au       1.28631739      -3.10525135      -1.29782936 
Au      -3.10501227      -1.28605221      -1.29784246 
Au       3.10470974       1.28589497      -1.29784505 
Au       1.28600297       3.10501543       1.29783664 
Au      -1.28590769      -3.10477982       1.29783740 
Au       3.10527377      -1.28637313       1.29782372 
Au      -3.10508017       1.28626479       1.29783630 
Au       1.28631739      -3.10525134       1.29782936 
Au      -1.28634183       3.10532924       1.29783684 
Au       3.10470974       1.28589497       1.29784504 
Au      -3.10501227      -1.28605220       1.29784245 
Au      -1.28590769      -3.10477982      -1.29783740 
Au       1.28600297       3.10501543      -1.29783664 
Au      -3.10508016       1.28626478      -1.29783630 
Au       3.10527377      -1.28637313      -1.29782372 
