20
-1549.705642
Au      -0.00023209       0.00019293       1.38925834 
Au      -0.00023209       0.00019293      -1.38925834 
Au       2.26694619      -1.30877845      -1.37832211 
Au      -0.00026426       2.61811236      -1.37839340 
Au      -2.26743776      -1.30875463      -1.37837081 
Au       2.26694619      -1.30877845       1.37832211 
Au      -0.00026426       2.61811236       1.37839340 
Au      -2.26743776      -1.30875463       1.37837081 
Au      -2.26673414       1.30875227       1.30085205 
Au      -0.00027675      -2.61686749       1.30086912 
Au       2.26617640       1.30874506       1.30086999 
Au      -2.26673414       1.30875227      -1.30085205 
Au      -0.00027675      -2.61686749      -1.30086912 
Au       2.26617640       1.30874506      -1.30086999 
Au       4.50491058      -2.60120329       1.30560814 
Au       0.00148597       5.20252256       1.30565375 
Au      -4.50457414      -2.60272132       1.30563966 
Au       4.50491058      -2.60120329      -1.30560814 
Au       0.00148597       5.20252256      -1.30565375 
Au      -4.50457414      -2.60272132      -1.30563966 
