20
-1552.400677
Au      -0.00000265      -0.00335769       1.33420983 
Au      -0.00000193      -0.00335769      -1.33420983 
Au       1.31783046      -0.76649841      -3.59903306 
Au       0.00001081       1.46541094      -3.53778788 
Au      -1.31781586      -0.76649242      -3.59902302 
Au       1.31783104      -0.76649826       3.59903446 
Au       0.00001146       1.46541094       3.53778788 
Au      -1.31781527      -0.76649256       3.59902162 
Au      -2.24516098       1.31167636       1.33850072 
Au      -0.00000391      -2.60351679       1.32416106 
Au       2.24515287       1.31167860       1.33850118 
Au      -2.24516073       1.31167636      -1.33850047 
Au      -0.00000358      -2.60351679      -1.32416106 
Au       2.24515312       1.31167860      -1.33850143 
Au       2.36354608      -1.34380444       1.29747920 
Au      -0.00000635       2.73870782       1.29449961 
Au      -2.36355266      -1.34380399       1.29747814 
Au       2.36354639      -1.34380444      -1.29747906 
Au      -0.00000598       2.73870782      -1.29449961 
Au      -2.36355235      -1.34380398      -1.29747828 
