20
-1552.853189
Au      -0.00000000       0.00063529      -1.83131218 
Au      -0.00000000       0.00063529       1.83131218 
Au      -3.91004093       2.25676557       1.31153689 
Au       0.00000000      -4.51512745       1.31147434 
Au       3.91004093       2.25676557       1.31153689 
Au      -3.91004093       2.25676557      -1.31153689 
Au       0.00000000      -4.51512745      -1.31147434 
Au       3.91004093       2.25676557      -1.31153689 
Au      -1.30166143       2.27095577      -1.34575717 
Au      -1.31521391      -2.26244872      -1.34604829 
Au       2.61646264      -0.00802654      -1.34574597 
Au      -1.30166143       2.27095577       1.34575717 
Au      -1.31521391      -2.26244872       1.34604829 
Au       2.61646264      -0.00802654       1.34574597 
Au      -2.61646264      -0.00802654      -1.34574597 
Au       1.30166143       2.27095577      -1.34575717 
Au       1.31521390      -2.26244872      -1.34604829 
Au      -2.61646264      -0.00802654       1.34574597 
Au       1.30166143       2.27095577       1.34575717 
Au       1.31521390      -2.26244872       1.34604829 
