20
-1555.172182
Au       0.09493551      -0.08660112      -5.21001501 
Au      -0.09493460      -0.08659773       5.21001060 
Au      -1.03614184       0.62932771      -2.95183979 
Au      -0.37708399      -1.91220959      -3.41875797 
Au       1.52651199      -0.13980541      -3.02912581 
Au      -1.52651798      -0.13979857       3.02911157 
Au       0.37707456      -1.91221017       3.41876645 
Au       1.03614536       0.62932526       2.95184646 
Au       0.80882335      -1.89899395      -1.06518159 
Au       0.92318803       2.03749276      -1.66831850 
Au      -3.40053587       0.55899359      -1.79492443 
Au       1.86104625      -1.50393718       1.30441073 
Au       1.57270575       2.16551737       0.85274975 
Au      -2.54008074       0.15021205       0.65314729 
Au       2.54008646       0.15020965      -0.65313248 
Au      -1.86104428      -1.50393708      -1.30441592 
Au      -1.57269886       2.16552303      -0.85275144 
Au       3.40053693       0.55898406       1.79491975 
Au      -0.80883123      -1.89898733       1.06517948 
Au      -0.92318477       2.03749260       1.66832085 
