20
-1555.433278
Au      -0.28429804      -0.00002180      -1.24054210 
Au       0.28429804       0.00002180       1.24054210 
Au      -2.28791741      -0.00000055       0.54624455 
Au       1.63416209      -2.23325367       0.94846944 
Au       1.63415422       2.23324347       0.94847229 
Au      -1.63416209       2.23325367      -0.94846944 
Au       2.28791741       0.00000055      -0.54624455 
Au      -1.63415422      -2.23324347      -0.94847229 
Au      -1.51464921       0.00000038       3.10824631 
Au       0.80520656      -1.39128206       3.38436007 
Au       0.80520449       1.39128122       3.38435593 
Au      -0.80520656       1.39128206      -3.38436007 
Au       1.51464921      -0.00000038      -3.10824631 
Au      -0.80520449      -1.39128122      -3.38435593 
Au      -2.73795148      -0.00000153      -2.07981318 
Au       1.05483908      -2.23158346      -1.62563105 
Au       1.05484476       2.23159301      -1.62563046 
Au      -1.05483908       2.23158346       1.62563105 
Au       2.73795148       0.00000153       2.07981318 
Au      -1.05484476      -2.23159301       1.62563046 
