20
-1551.217809
Au      -0.00106750       0.00000057       2.17425438 
Au       0.00106722       0.00000023      -2.17421336 
Au      -2.59924893       0.00000012       1.82382553 
Au       1.29848833      -2.24989317       1.82518671 
Au       1.29848930       2.24989277       1.82518673 
Au      -1.29849362       2.24990018      -1.82519576 
Au       2.59925790      -0.00000025      -1.82383643 
Au      -1.29849244      -2.24990135      -1.82519742 
Au      -4.66108301       0.00000117       0.23784022 
Au       2.32666141      -4.03869093       0.24159602 
Au       2.32665981       4.03869031       0.24159648 
Au      -2.32665605       4.03868295      -0.24157324 
Au       4.66107458       0.00000256      -0.23781615 
Au      -2.32665839      -4.03868207      -0.24157290 
Au       2.30070966      -0.00000033       0.84522296 
Au      -1.15122240       1.99343205       0.84498633 
Au      -1.15122300      -1.99343186       0.84498585 
Au       1.15123767      -1.99345720      -0.84501368 
Au      -2.30073739      -0.00000124      -0.84524971 
Au       1.15123685       1.99345549      -0.84501255 
