20
-1555.66793
Au       0.00000219       0.00000000       5.34289958 
Au      -0.00000219      -0.00000000      -5.34289958 
Au      -2.55216119      -0.00000000       1.85761220 
Au       1.27608111      -2.21023584       1.85761122 
Au       1.27608111       2.21023584       1.85761122 
Au      -1.27608111       2.21023584      -1.85761122 
Au       2.55216119       0.00000000      -1.85761220 
Au      -1.27608111      -2.21023584      -1.85761122 
Au      -1.55950743       0.00000000      -3.25176869 
Au       0.77975187      -1.35057088      -3.25176904 
Au       0.77975187       1.35057088      -3.25176904 
Au      -0.77975187       1.35057088       3.25176904 
Au       1.55950743       0.00000000       3.25176869 
Au      -0.77975187      -1.35057088       3.25176904 
Au      -2.32699215       0.00000000      -0.73492914 
Au       1.16349478      -2.01523171      -0.73492892 
Au       1.16349478       2.01523171      -0.73492892 
Au      -1.16349478       2.01523171       0.73492892 
Au       2.32699215      -0.00000000       0.73492914 
Au      -1.16349478      -2.01523171       0.73492892 
