20
-1555.942374
Au       0.00000008      -0.00000000      -2.03870695 
Au      -0.00000008       0.00000000       2.03870695 
Au       2.61800960      -0.00000000      -1.38284667 
Au      -1.30901260       2.26726809      -1.38285690 
Au      -1.30901260      -2.26726809      -1.38285690 
Au       1.30901260      -2.26726809       1.38285690 
Au      -2.61800960      -0.00000000       1.38284667 
Au       1.30901260       2.26726809       1.38285690 
Au       2.61846375      -0.00000000       1.38263705 
Au      -1.30923903       2.26765012       1.38264344 
Au      -1.30923904      -2.26765012       1.38264344 
Au       1.30923904      -2.26765012      -1.38264344 
Au      -2.61846375      -0.00000001      -1.38263705 
Au       1.30923903       2.26765012      -1.38264344 
Au      -3.54014690       2.04390762       0.00000136 
Au       0.00000000      -4.08781101      -0.00000000 
Au       3.54014690       2.04390762      -0.00000136 
Au       3.54014690      -2.04390762      -0.00000136 
Au      -0.00000000       4.08781101       0.00000000 
Au      -3.54014690      -2.04390762       0.00000136 
