20
-1553.964507
Au      -0.47477337       0.00001506      -3.13675605 
Au       0.47477336      -0.00001506       3.13675605 
Au       2.84947290       0.00000033       2.10416180 
Au      -1.59954427       2.58355980       1.52210075 
Au      -1.59948212      -2.58364101       1.52207590 
Au       1.59954427      -2.58355980      -1.52210075 
Au      -2.84947290      -0.00000033      -2.10416180 
Au       1.59948211       2.58364102      -1.52207590 
Au      -1.33814634       0.00003862       1.24428427 
Au       0.89453973      -1.54464747       0.98263089 
Au       0.89453797       1.54464621       0.98263551 
Au      -0.89453973       1.54464747      -0.98263089 
Au       1.33814634      -0.00003862      -1.24428427 
Au      -0.89453797      -1.54464621      -0.98263551 
Au      -3.37747591       1.32040101       0.08365455 
Au      -0.00005262      -3.91482224       0.00005349 
Au       3.37748245       1.32039526      -0.08364328 
Au       3.37747591      -1.32040101      -0.08365455 
Au       0.00005263       3.91482224      -0.00005350 
Au      -3.37748245      -1.32039526       0.08364328 
