20
-1547.175028
Au       0.00081387      -0.00000006      -4.17272791 
Au      -0.00081387       0.00000006       4.17272791 
Au       1.49235940       0.00000006       2.05319307 
Au      -0.74988883       1.29496285       2.05522270 
Au      -0.74988875      -1.29496278       2.05522271 
Au       0.74988883      -1.29496285      -2.05522270 
Au      -1.49235940      -0.00000006      -2.05319307 
Au       0.74988875       1.29496278      -2.05522271 
Au      -4.55552673       2.66197440       0.00134904 
Au       0.00000214      -5.27423223      -0.00000004 
Au       4.55552783       2.66197243      -0.00134898 
Au       4.55552673      -2.66197440      -0.00134904 
Au      -0.00000214       5.27423223       0.00000004 
Au      -4.55552783      -2.66197243       0.00134898 
Au       2.31899009      -1.33714684      -0.00001562 
Au       0.00000001       2.67447641      -0.00000002 
Au      -2.31898996      -1.33714697       0.00001565 
Au      -2.31899009       1.33714684       0.00001562 
Au      -0.00000001      -2.67447641       0.00000002 
Au       2.31898996       1.33714697      -0.00001565 
