20
-1552.819534
Au       0.46685852       0.10116585      -3.45188427 
Au      -0.46687625      -0.10115350       3.45188501 
Au       2.21068243      -0.04858619      -1.49760986 
Au       0.03024214       1.42364008      -1.26372364 
Au      -0.09593898      -1.33340173      -1.35740737 
Au      -0.03029015      -1.42362693       1.26373566 
Au      -2.21067362       0.04859415       1.49761157 
Au       0.09598407       1.33338339       1.35737824 
Au      -4.24551644       1.06020713       0.22183666 
Au       0.25197226      -6.16862445       0.10245188 
Au       4.49818132       1.36711420      -1.10069845 
Au       4.24555381      -1.06021771      -0.22187180 
Au      -0.25201284       6.16866313      -0.10246162 
Au      -4.49812361      -1.36713852       1.10066846 
Au      -2.02682032       2.38395466       0.08689055 
Au      -0.26181545      -3.65568246      -0.13313565 
Au       2.30785796       2.02776388       0.12986831 
Au       2.02679314      -2.38397860      -0.08687196 
Au       0.26176665       3.65571800       0.13313828 
Au      -2.30782461      -2.02779437      -0.12980002 
