20
-1550.003267
Au      -0.01686240      -0.00000181       1.31508062 
Au       0.01686240       0.00000181      -1.31508062 
Au      -3.62924973      -0.00000083       3.20695943 
Au       1.73178199      -2.93547088       3.20991923 
Au       1.73178263       2.93547041       3.20991821 
Au      -1.73178199       2.93547088      -3.20991923 
Au       3.62924973       0.00000083      -3.20695943 
Au      -1.73178264      -2.93547041      -3.20991821 
Au       2.26934391       1.34658916       1.22011535 
Au      -2.31500054       1.33228250       1.39123055 
Au      -0.03134177      -2.63108178       1.31846581 
Au       0.03134660      -2.63108358      -1.31847046 
Au      -2.26934301       1.34658934      -1.22011509 
Au       2.31500715       1.33228130      -1.39123988 
Au      -2.26934391      -1.34658916      -1.22011535 
Au       2.31500054      -1.33228250      -1.39123055 
Au       0.03134177       2.63108178      -1.31846581 
Au      -0.03134660       2.63108358       1.31847046 
Au       2.26934301      -1.34658934       1.22011509 
Au      -2.31500715      -1.33228130       1.39123988 
