20
-1554.635058
Au       0.00000000       0.00000277       2.69410366 
Au       0.00000000       0.00000445      -0.49542683 
Au      -2.23945610       1.29295121       2.28649314 
Au       0.00000000      -2.58590387       2.28649342 
Au       2.23945610       1.29295121       2.28649314 
Au       4.02336980      -2.32289356       0.21402994 
Au       0.00000000       4.64579711       0.21403327 
Au      -4.02336980      -2.32289356       0.21402994 
Au       1.92774100      -1.11298172       1.22805576 
Au       0.00000000       2.22595724       1.22806387 
Au      -1.92774100      -1.11298172       1.22805576 
Au      -2.25739383       1.30330701      -0.33659243 
Au       0.00000000      -2.60661710      -0.33659120 
Au       2.25739383       1.30330701      -0.33659243 
Au      -1.31731934       0.76056138      -2.75196403 
Au       0.00000000      -1.52111490      -2.75196736 
Au       1.31731934       0.76056138      -2.75196403 
Au       2.22452241      -1.28432890      -1.37291276 
Au      -0.00000000       2.56864345      -1.37292803 
Au      -2.22452242      -1.28432890      -1.37291276 
