20
-1553.632494
Au       0.00037497      -0.43805302       1.40944657 
Au      -0.00033384       0.12590764       4.02760729 
Au       2.62096208      -2.52166821      -1.59523692 
Au      -0.00052818       3.69888880      -1.97073842 
Au      -2.62137507      -2.52170969      -1.59516898 
Au       3.23668902      -1.36570724       0.68071288 
Au      -0.00054348       4.23206588       0.61340657 
Au      -3.23678210      -1.36542211       0.68074260 
Au       1.31737509      -1.07809249      -3.39462919 
Au       0.00004829       1.12347968      -2.75509892 
Au      -1.31757815      -1.07799570      -3.39462155 
Au       2.14771496      -0.89477969       2.98493464 
Au       0.00080906       2.17977580       2.37915169 
Au      -2.14760099      -0.89709808       2.98516146 
Au       1.36608965      -0.33808580      -0.86939205 
Au       0.00005580       1.77513301      -0.19988931 
Au      -1.36614697      -0.33783925      -0.86915321 
Au      -2.19413261       1.10367940       1.23095074 
Au      -0.00019364      -2.50681556      -1.57736162 
Au       2.19509609       1.10433665       1.22917574 
