20
-1555.845086
Au       0.00000023       0.00115351       0.21101773 
Au       0.00000050      -0.00148804       2.84780920 
Au      -2.28515284       1.31800119       1.90778115 
Au       0.00001401      -2.63641618       1.90735823 
Au       2.28510352       1.31806100       1.90778118 
Au       2.17750292      -1.25734646       1.88451018 
Au       0.00005270       2.51039709       1.88694098 
Au      -2.17751977      -1.25730285       1.88450715 
Au      -2.67112460       1.54458494      -2.48503872 
Au      -0.00000191      -3.08714963      -2.48581395 
Au       2.67112294       1.54458321      -2.48503112 
Au       1.31879733      -0.76188502      -2.47626612 
Au       0.00000173       1.52206834      -2.47265674 
Au      -1.31879655      -0.76188761      -2.47626871 
Au      -2.71885683       0.00072456      -0.36183186 
Au       1.35912650      -2.35488918      -0.36201018 
Au       1.36026835       2.35647539      -0.35968539 
Au      -1.36026947       2.35647750      -0.35969205 
Au       2.71885780       0.00072862      -0.36184799 
Au      -1.35912656      -2.35489036      -0.36201649 
