20
-1554.173172
Au      -0.00000000      -0.00000000      -0.38459098 
Au      -0.00000000       0.00000000       4.08762577 
Au      -1.32378737       0.76428899       1.96171484 
Au      -0.00000000      -1.52857799       1.96171484 
Au       1.32378737       0.76428899       1.96171484 
Au      -3.05090961       1.76144349       0.33074181 
Au      -0.00000000      -3.52288697       0.33074181 
Au       3.05090961       1.76144349       0.33074181 
Au       3.88072643      -2.24053845      -1.15417247 
Au       0.00000000       4.48107690      -1.15417247 
Au      -3.88072643      -2.24053845      -1.15417247 
Au       2.31024295      -1.33381939       0.73012149 
Au       0.00000000       2.66763878       0.73012149 
Au      -2.31024295      -1.33381939       0.73012149 
Au      -2.59918656       0.00307222      -1.55137529 
Au       1.29693266      -2.25249770      -1.55137529 
Au       1.30225390       2.24942548      -1.55137529 
Au      -1.30225390       2.24942548      -1.55137529 
Au       2.59918656       0.00307222      -1.55137529 
Au      -1.29693266      -2.25249770      -1.55137529 
