20
-1553.335312
Au      -4.96167672       1.27070253       0.00000019 
Au       4.96179330      -1.27064901       0.00000033 
Au       0.92408807      -3.92193534       0.00000024 
Au      -0.92408543       3.92192168      -0.00000006 
Au      -3.39503553      -0.80011179      -0.00000029 
Au       3.39508309       0.80014910       0.00000006 
Au      -1.35208474      -2.57027570      -0.00000009 
Au       1.35215172       2.57042573      -0.00000001 
Au       3.87178626       3.35258301       0.00000012 
Au      -3.87167902      -3.35257037       0.00000025 
Au      -2.35786784       1.69610836      -0.00000024 
Au       2.35796310      -1.69623879       0.00000016 
Au      -1.29592471      -0.30542254      -1.48654610 
Au       1.29576329       0.30539198      -1.48618828 
Au       0.51481004      -2.18444235      -1.88665836 
Au      -0.51486622       2.18441815      -1.88665988 
Au       1.29576271       0.30539190       1.48618828 
Au      -1.29592467      -0.30542246       1.48654609 
Au       0.51480976      -2.18444224       1.88665821 
Au      -0.51486646       2.18441816       1.88665940 
