20
-1555.942376
Au      -0.00000000      -0.00000002       2.03951376 
Au       0.00000000       0.00000007      -2.03957442 
Au      -3.54018705       2.04392792      -0.00008887 
Au      -0.00000000      -4.08785589      -0.00008888 
Au       3.54018705       2.04392792      -0.00008887 
Au       3.54002491      -2.04383434       0.00011354 
Au      -0.00000000       4.08766864       0.00011351 
Au      -3.54002491      -2.04383434       0.00011354 
Au       2.61831341       0.00005507       1.38271532 
Au      -1.30920456       2.26749837       1.38271528 
Au      -1.30910897      -2.26755357       1.38271545 
Au       1.30910897      -2.26755357       1.38271545 
Au      -2.61831341       0.00005507       1.38271532 
Au       1.30920456       2.26749837       1.38271528 
Au      -2.61814738       0.00002151      -1.38271763 
Au       1.30905520      -2.26739280      -1.38271753 
Au       1.30909203       2.26737143      -1.38271755 
Au      -1.30909203       2.26737143      -1.38271755 
Au       2.61814738       0.00002151      -1.38271762 
Au      -1.30905520      -2.26739280      -1.38271753 
