20
-1549.960485
Au       0.00000000       0.00000093      -0.13218308 
Au      -0.00000000      -0.00000065       2.50324316 
Au       4.76876739      -1.24518862      -1.45363133 
Au      -1.30601872       4.75246869      -1.45363178 
Au      -3.46274848      -3.50727933      -1.45363129 
Au       3.46274849      -3.50727933      -1.45363129 
Au      -4.76876739      -1.24518862      -1.45363133 
Au       1.30601872       4.75246869      -1.45363178 
Au      -1.31427718       2.26050668      -0.77689483 
Au      -1.30051722      -2.26844992      -0.77689373 
Au       2.61479451       0.00794484      -0.77689407 
Au      -2.61479451       0.00794484      -0.77689408 
Au       1.31427717       2.26050668      -0.77689484 
Au       1.30051722      -2.26844992      -0.77689374 
Au       1.28949036      -2.23157653       1.83534960 
Au       1.28785620       2.23251859       1.83534826 
Au      -2.57734663      -0.00094454       1.83534914 
Au       2.57734663      -0.00094454       1.83534914 
Au      -1.28949036      -2.23157653       1.83534960 
Au      -1.28785620       2.23251859       1.83534827 
