20
-1555.674641
Au      -0.00000000       0.00000000      -1.33356279 
Au      -0.00000000      -0.00000001       1.33356252 
Au       2.17874834      -1.29514069       0.00011568 
Au      -0.00000661       2.76184990      -0.00000026 
Au      -2.17875568      -1.29513519      -0.00011642 
Au      -2.17874834       1.29514069       0.00011578 
Au       0.00000661      -2.76184990      -0.00000018 
Au       2.17875568       1.29513519      -0.00011632 
Au      -1.28974970      -2.25477694       2.29253286 
Au       2.58296966      -0.00000208       2.31446705 
Au      -1.28924005       2.25459771       2.29272367 
Au       1.28975014       2.25477679       2.29253285 
Au      -2.58296965       0.00000238       2.31446705 
Au       1.28923961      -2.25459786       2.29272368 
Au      -1.28924050      -2.25459624      -2.29272629 
Au      -1.28974899       2.25477750      -2.29252931 
Au       2.58296910       0.00000521      -2.31446699 
Au       1.28924007       2.25459639      -2.29272630 
Au       1.28974942      -2.25477736      -2.29252930 
Au      -2.58296910      -0.00000550      -2.31446699 
