20
-1555.942367
Au       0.00000000      -0.00000000      -4.08774808 
Au       0.00000000      -0.00000000       4.08768759 
Au      -2.04000272      -0.00004365       0.00005829 
Au       1.38279755      -2.61808082       0.00034638 
Au       1.38283386       2.61814011      -0.00027891 
Au       2.04000272       0.00004365       0.00005829 
Au      -1.38279754       2.61808082       0.00034639 
Au      -1.38283386      -2.61814011      -0.00027892 
Au       1.38320276       1.30876067       2.26714401 
Au      -1.38238771       1.30946964       2.26781723 
Au      -0.00092583      -3.53983413       2.04382944 
Au      -1.38320276      -1.30876066       2.26714402 
Au       1.38238771      -1.30946964       2.26781724 
Au       0.00092583       3.53983412       2.04382943 
Au      -0.00093405       3.53994656      -2.04382461 
Au       1.38317624      -1.30873206      -2.26721359 
Au      -1.38250484      -1.30949656      -2.26784800 
Au       0.00093405      -3.53994656      -2.04382461 
Au      -1.38317624       1.30873207      -2.26721359 
Au       1.38250484       1.30949655      -2.26784800 
