20
-1546.665503
Au       1.90490056      -0.00000000      -0.00000000 
Au      -1.90490056       0.00000000      -0.00000000 
Au      -0.00000000       1.90490056      -0.00000000 
Au       0.00000000      -1.90490056       0.00000000 
Au       2.52239805       2.52239805      -0.00000000 
Au      -2.52239805      -2.52239805       0.00000000 
Au      -2.52239805       2.52239805      -0.00000000 
Au       2.52239805      -2.52239805       0.00000000 
Au      -4.33198028      -4.33198028       0.00000000 
Au       4.33198028       4.33198028       0.00000000 
Au       4.33198028      -4.33198028      -0.00000000 
Au      -4.33198028       4.33198028       0.00000000 
Au      -1.84884275       0.00000000      -2.58442765 
Au       1.84884275       0.00000000      -2.58442765 
Au      -0.00000000      -1.84884275      -2.58442765 
Au      -0.00000000       1.84884275      -2.58442765 
Au       1.84884275       0.00000000       2.58442765 
Au      -1.84884275      -0.00000000       2.58442765 
Au       0.00000000      -1.84884275       2.58442765 
Au      -0.00000000       1.84884275       2.58442765 
