20
-1555.67464
Au      -0.00000016       0.00000022      -1.33327331 
Au       0.00000015      -0.00000062       1.33327364 
Au       2.75940019      -0.00005876       0.00000358 
Au      -1.29520947       2.18029865      -0.00021135 
Au      -1.29521300      -2.18045375       0.00019439 
Au      -2.75940016       0.00005952       0.00000872 
Au       1.29520828      -2.18029880      -0.00020161 
Au       1.29521441       2.18045341       0.00020273 
Au      -0.00062245       2.58453659       2.31413879 
Au      -2.25296599      -1.28932496       2.29283954 
Au       2.25438253      -1.28949588       2.29222805 
Au       0.00065026      -2.58453517       2.31413828 
Au       2.25295267       1.28935575       2.29283846 
Au      -2.25439814       1.28946383       2.29222965 
Au       2.25432589       1.28943784      -2.29223887 
Au      -0.00068685      -2.58451881      -2.31414069 
Au      -2.25303473       1.28938105      -2.29282507 
Au      -2.25431430      -1.28946404      -2.29223793 
Au       0.00066311       2.58451801      -2.31414069 
Au       2.25304775      -1.28935408      -2.29282632 
