20
-1545.768122
Au       0.00000000       0.00000000      -4.44038409 
Au       0.00000000       0.00000000       4.44038409 
Au      -0.00000000      -0.00000000       1.87394413 
Au       0.00000000       0.00000000      -1.87394413 
Au       1.83788123       0.00000000       0.00000000 
Au      -1.83788123       0.00000000      -0.00000000 
Au      -0.00000000       1.83788123       0.00000000 
Au      -0.00000000      -1.83788123      -0.00000000 
Au       4.38333917      -0.00000000      -0.00000000 
Au      -4.38333917       0.00000000       0.00000000 
Au       0.00000000       4.38333917      -0.00000000 
Au      -0.00000000      -4.38333917       0.00000000 
Au      -2.50584812      -2.50584812       0.00000000 
Au       2.50584812       2.50584812      -0.00000000 
Au       2.50584812      -2.50584812       0.00000000 
Au      -2.50584812       2.50584812      -0.00000000 
Au      -4.31903872      -4.31903872       0.00000000 
Au       4.31903872       4.31903872      -0.00000000 
Au       4.31903872      -4.31903872       0.00000000 
Au      -4.31903872       4.31903872      -0.00000000 
