20
-1552.730042
Au       0.00023257      -0.00026550       3.85564574 
Au       0.00010950       0.00123418      -3.89398128 
Au       0.00035258      -0.00074003       1.24240484 
Au      -0.00023802      -0.00023453      -1.31231351 
Au       4.28727092       0.66174376       1.11074425 
Au      -4.28749340      -0.66126804       1.11037766 
Au       0.86511650       4.23444755       1.08028872 
Au      -0.86554050      -4.23452953       1.07937609 
Au      -2.36545685       0.49822044      -0.23310508 
Au       2.36514576      -0.49777684      -0.23279981 
Au       0.53568315      -2.37061609      -0.08715709 
Au      -0.53525084       2.36993087      -0.08646682 
Au      -2.25616148       0.14721530       2.49224172 
Au       2.25660276      -0.14900787       2.49261655 
Au      -1.97143624      -1.90142087       0.71977181 
Au       1.97114009       1.90125614       0.72191538 
Au       2.16242910       0.80298479      -2.57645797 
Au      -2.16259139      -0.80202469      -2.57768761 
Au       1.58833819      -1.76725123      -2.45295195 
Au      -1.58825240       1.76810218      -2.45246164 
