20
-1548.668299
Au       0.00000000      -0.00000000       1.89842255 
Au      -0.00000000       0.00000000      -1.89842255 
Au       0.00000000      -0.00000000      -4.46806520 
Au      -0.00000000      -0.00000000       4.46806520 
Au      -1.87699303       0.00000000      -0.00000000 
Au       1.87699303      -0.00000000      -0.00000000 
Au      -0.00000000      -1.87699303      -0.00000000 
Au       0.00000000       1.87699303      -0.00000000 
Au      -4.54725842      -0.00000000      -0.00000000 
Au       4.54725842       0.00000000      -0.00000000 
Au      -0.00000000      -4.54725842       0.00000000 
Au       0.00000000       4.54725842       0.00000000 
Au       2.04622273       3.30801712       0.92906266 
Au      -2.04622273      -3.30801712       0.92906266 
Au      -3.30801712       2.04622273       0.92906266 
Au       3.30801712      -2.04622273       0.92906266 
Au      -2.04622273       3.30801712      -0.92906266 
Au       2.04622273      -3.30801712      -0.92906266 
Au       3.30801712       2.04622273      -0.92906266 
Au      -3.30801712      -2.04622273      -0.92906266 
