20
-1547.197536
Au       0.00001178      -0.00001677       1.96550622 
Au      -0.00001136       0.00001646      -1.96550574 
Au      -0.00000105       0.00000101       4.56133013 
Au       0.00000043      -0.00000112      -4.56133037 
Au      -4.39355734      -0.00000009      -0.00000758 
Au       4.39355255      -0.00000025      -0.00000120 
Au      -0.00000011      -4.39368184       0.00000846 
Au      -0.00000027       4.39367679      -0.00000055 
Au       1.81968922      -0.00000752      -0.00001505 
Au      -1.81967802       0.00000345       0.00000079 
Au      -0.00000728       1.81967476       0.00001776 
Au       0.00000366      -1.81966308      -0.00000530 
Au      -3.08768345       0.00283215      -2.26074306 
Au       3.08770026      -0.00282816      -2.26074508 
Au      -0.00286019      -3.08764851      -2.26068557 
Au       0.00285717       3.08762229      -2.26067603 
Au       3.08768718       0.00282788       2.26075049 
Au      -3.08770597      -0.00283225       2.26075739 
Au       0.00286019      -3.08761892       2.26067074 
Au      -0.00285739       3.08764372       2.26067356 
