20
-1554.378923
Au       0.00000008       0.00000027      -1.34860601 
Au      -0.00000006      -0.00000018       1.17279192 
Au       0.00000001       0.00000004      -3.91451146 
Au      -0.00000001       0.00000001       3.73500588 
Au       2.44833105       0.96070991      -0.00965875 
Au      -2.44833109      -0.96071004      -0.00965865 
Au       0.47278454       2.69352142      -0.08666422 
Au      -0.47278458      -2.69352137      -0.08666406 
Au       2.84245476       3.43766915       0.75194187 
Au      -2.84245475      -3.43766916       0.75194184 
Au      -1.87510414       1.56830118      -0.17290602 
Au       1.87510426      -1.56830115      -0.17290604 
Au       2.28625069      -0.57001976       2.26702296 
Au      -2.28625065       0.57001977       2.26702298 
Au       1.42934517       1.91198835       2.37226497 
Au      -1.42934534      -1.91198839       2.37226510 
Au      -2.34954139       0.19909905      -2.46543453 
Au       2.34954164      -0.19909917      -2.46543466 
Au      -0.69130998       2.24948728      -2.47890658 
Au       0.69130981      -2.24948719      -2.47890653 
