20
-1550.25018
Au      -0.00000014      -0.00000086      -1.30718002 
Au      -0.00000006      -0.00000071       1.30718000 
Au       0.00000003       0.00000003       3.88506367 
Au      -0.00000001      -0.00000006      -3.88506367 
Au       3.72210761      -0.00004022       0.00000894 
Au      -3.72210467       0.00003291       0.00000858 
Au      -0.00003051       3.72210352      -0.00000818 
Au       0.00005681      -3.72211010      -0.00001132 
Au       1.65888168       1.65888923       0.00000010 
Au      -1.65888638      -1.65887936      -0.00000028 
Au      -1.65888501       1.65889074      -0.00000001 
Au       1.65888438      -1.65888555       0.00000011 
Au       2.48812996       4.20312980       0.41516346 
Au      -2.48814747      -4.20312837       0.41516282 
Au      -4.20309934       2.48812561       0.41515058 
Au       4.20310739      -2.48811406       0.41515359 
Au      -2.48812520       4.20309900      -0.41515045 
Au       2.48810624      -4.20310597      -0.41515250 
Au       4.20313081       2.48813419      -0.41516378 
Au      -4.20312613      -2.48813976      -0.41516162 
