20
-1552.886527
Au      -3.42255707      -0.04276875      -0.00000000 
Au       3.42255707       0.04276875       0.00000000 
Au       0.53785639      -3.49198761       0.00000000 
Au      -0.53785639       3.49198761      -0.00000000 
Au       1.51017113       1.84617238       0.00000000 
Au      -1.51017113      -1.84617238      -0.00000000 
Au      -0.96290104       0.88223924      -0.00000002 
Au       0.96290104      -0.88223924       0.00000002 
Au      -4.03006852      -2.58139274      -0.00000000 
Au       4.03006852       2.58139274       0.00000000 
Au       2.97557464      -2.53738800      -0.00000000 
Au      -2.97557464       2.53738800       0.00000000 
Au       1.74696058       0.20155327       2.23456831 
Au      -1.74696058      -0.20155327       2.23456832 
Au      -0.14979128       2.02402075       2.19929977 
Au       0.14979129      -2.02402076       2.19929977 
Au      -1.74696058      -0.20155327      -2.23456831 
Au       1.74696058       0.20155327      -2.23456832 
Au      -0.14979129       2.02402076      -2.19929977 
Au       0.14979128      -2.02402075      -2.19929977 
