20
-1554.378931
Au       0.00000027      -0.00000008      -3.91439459 
Au       0.00000008       0.00000007       3.73462357 
Au       0.00000133      -0.00000115      -1.34858629 
Au      -0.00000114       0.00000020       1.17263972 
Au      -2.69661646       0.46812596      -0.08734449 
Au       2.69661663      -0.46812604      -0.08734549 
Au       0.96541988      -2.44521340      -0.00993951 
Au      -0.96542006       2.44521358      -0.00993906 
Au      -1.56495731      -1.87722830      -0.17151913 
Au       1.56495708       1.87722797      -0.17151889 
Au       3.44282742      -2.83695989       0.75126302 
Au      -3.44282774       2.83696000       0.75126298 
Au      -0.19451397      -2.34994916      -2.46517288 
Au       0.19451312       2.34994805      -2.46517231 
Au       2.24846382       0.69627621      -2.47813006 
Au      -2.24846265      -0.69627497      -2.47812942 
Au      -0.56386882      -2.28740777       2.26744631 
Au       0.56386889       2.28740769       2.26744643 
Au      -1.91614092       1.42422715       2.37125547 
Au       1.91614057      -1.42422611       2.37125464 
