20
-1546.780996
Au      -0.00000000       0.00000000      -4.59032528 
Au       0.00000000      -0.00000000       4.59032528 
Au      -0.00000000      -0.00000000       1.99568816 
Au       0.00000000       0.00000000      -1.99568816 
Au      -1.28103128      -1.28103128      -0.00000000 
Au       1.28103128       1.28103128       0.00000000 
Au       1.28103128      -1.28103128      -0.00000000 
Au      -1.28103128       1.28103128       0.00000000 
Au      -3.08304851      -3.08304851       0.00000000 
Au       3.08304851       3.08304851      -0.00000000 
Au       3.08304851      -3.08304851       0.00000000 
Au      -3.08304851       3.08304851      -0.00000000 
Au       1.90575593       1.90517151      -2.42116763 
Au      -1.90575593      -1.90517151      -2.42116763 
Au      -1.90517151       1.90575594      -2.42116763 
Au       1.90517151      -1.90575593      -2.42116763 
Au      -1.90575593       1.90517151       2.42116763 
Au       1.90575593      -1.90517151       2.42116763 
Au       1.90517151       1.90575593       2.42116763 
Au      -1.90517151      -1.90575594       2.42116763 
