20
-1546.781003
Au       0.00000000      -0.00000000      -1.99507905 
Au       0.00000000       0.00000000       1.99507905 
Au       0.00000000      -0.00000000       4.58963916 
Au      -0.00000000      -0.00000000      -4.58963916 
Au      -3.08313376      -3.08313376      -0.00000000 
Au       3.08313376       3.08313376       0.00000000 
Au       3.08313376      -3.08313376      -0.00000000 
Au      -3.08313376       3.08313376       0.00000000 
Au       1.28106636       1.28106636      -0.00000000 
Au      -1.28106636      -1.28106636       0.00000000 
Au      -1.28106636       1.28106636       0.00000000 
Au       1.28106636      -1.28106636      -0.00000000 
Au      -1.90575137       1.90503132       2.42146692 
Au       1.90575137      -1.90503132       2.42146692 
Au      -1.90503132      -1.90575137       2.42146692 
Au       1.90503132       1.90575137       2.42146692 
Au       1.90575137       1.90503132      -2.42146692 
Au      -1.90575137      -1.90503132      -2.42146692 
Au       1.90503132      -1.90575137      -2.42146692 
Au      -1.90503132       1.90575137      -2.42146692 
