20
-1550.541267
Au       3.40490292      -0.24879264      -0.00061502 
Au      -3.40490306       0.24879162      -0.00061489 
Au      -0.25348581       3.40511865       0.01003635 
Au       0.25348313      -3.40511766       0.01003639 
Au      -5.94088264      -0.45653155      -0.00919790 
Au       5.94088287       0.45653176      -0.00919786 
Au      -0.44872478      -5.94224218       0.00781253 
Au       0.44872512       5.94224225       0.00781265 
Au       1.62926580       1.63180211       0.03937637 
Au      -1.62926485      -1.63180365       0.03937663 
Au      -2.77652623       2.77297117      -0.02893235 
Au       2.77652879      -2.77296895      -0.02893253 
Au      -4.12950599      -2.29608276       0.04032073 
Au       4.12950593       2.29608276       0.04032085 
Au       2.06546555      -5.28435604      -0.03270296 
Au      -2.06546562       5.28435448      -0.03270309 
Au       5.28620217      -2.05837470      -0.06895587 
Au      -5.28620328       2.05837462      -0.06895569 
Au      -2.29037683      -4.13265598       0.04285787 
Au       2.29037681       4.13265668       0.04285780 
