20
-1551.68254
Au      -6.09543377       0.00028777      -0.00009629 
Au       6.09543377      -0.00028777      -0.00009629 
Au       0.00006048      -6.61004647       0.00000946 
Au      -0.00006048       6.61004647       0.00000946 
Au      -3.52831480      -0.00007916       0.00008951 
Au       3.52831480       0.00007916       0.00008951 
Au       0.00010699      -4.04545718      -0.00006788 
Au      -0.00010699       4.04545718      -0.00006788 
Au       1.88558819       2.18023247       0.00001924 
Au      -1.88558819      -2.18023247       0.00001924 
Au      -1.88569743       2.18015830       0.00001059 
Au       1.88569743      -2.18015830       0.00001059 
Au      -1.34053009      -0.00011632       1.41485822 
Au       1.34053009       0.00011632       1.41485822 
Au       0.00005298      -2.22664215       1.86517386 
Au      -0.00005298       2.22664215       1.86517386 
Au       1.34055980      -0.00006409      -1.41478223 
Au      -1.34055980       0.00006409      -1.41478223 
Au       0.00006523      -2.22653863      -1.86521447 
Au      -0.00006523       2.22653863      -1.86521447 
