20
-1553.335317
Au       4.02895631       0.00033243       0.00000000 
Au      -4.02895631      -0.00033243       0.00000000 
Au      -0.00020044       3.48892260       0.00000000 
Au       0.00020044      -3.48892259       0.00000000 
Au       2.19200175       1.90605213       0.00000000 
Au      -2.19200175      -1.90605214       0.00000000 
Au      -2.19228203       1.90572256       0.00000000 
Au       2.19228202      -1.90572255       0.00000000 
Au       2.37520983       4.53773561      -0.00000000 
Au      -2.37520983      -4.53773560      -0.00000000 
Au      -2.37566337       4.53753677      -0.00000000 
Au       2.37566338      -4.53753676      -0.00000000 
Au       2.24401828       0.00019147      -1.88693246 
Au      -2.24401828      -0.00019147      -1.88693246 
Au      -0.00010276       1.33128128      -1.48490036 
Au       0.00010276      -1.33128129      -1.48490036 
Au      -2.24401828      -0.00019147       1.88693246 
Au       2.24401828       0.00019147       1.88693246 
Au      -0.00010276       1.33128128       1.48490036 
Au       0.00010276      -1.33128129       1.48490036 
