20
-1553.759792
Au       1.33792246       0.01359057       0.18290076 
Au      -1.33792258      -0.01359063       0.18290022 
Au      -0.13513355       2.36851632       0.33351029 
Au       0.13513368      -2.36851628       0.33351021 
Au       3.81392263       0.14652023      -0.73144133 
Au      -3.81392198      -0.14652038      -0.73144144 
Au       1.18953048       4.60526065      -0.04823366 
Au      -1.18953016      -4.60526118      -0.04823370 
Au      -2.41648424      -2.34765626      -0.49688198 
Au       2.41648433       2.34766066      -0.49688034 
Au       2.81956274      -2.17424673       0.07348972 
Au      -2.81956267       2.17424671       0.07348956 
Au      -1.98677584       1.06112548      -2.15052424 
Au       1.98677503      -1.06112920      -2.15052616 
Au      -0.61197777      -1.19740679      -2.05565890 
Au       0.61197745       1.19740683      -2.05565893 
Au       0.86919556       1.04710280       2.54706824 
Au      -0.86919555      -1.04710283       2.54706814 
Au       1.70682697      -1.46841052       2.34577180 
Au      -1.70682698       1.46841055       2.34577174 
