20
-1552.831156
Au       3.39851024      -0.20037386       0.64333622 
Au      -3.39857882       0.20045148       0.64342937 
Au      -0.52554381       3.18023949      -0.27306083 
Au       0.52557803      -3.18024107      -0.27304248 
Au       1.38241005       1.42354761       0.15062266 
Au      -1.38252683      -1.42352628       0.15054834 
Au      -0.93284592       0.98035214       1.29287359 
Au       0.93290158      -0.98051035       1.29294473 
Au      -4.08000954      -3.82349771      -2.57025588 
Au       4.08001133       3.82350880      -2.57026294 
Au       2.85266002      -2.76259088       0.87379791 
Au      -2.85255651       2.76266839       0.87376991 
Au      -3.75335174      -1.76770168      -1.00254921 
Au       3.75331142       1.76770553      -1.00253026 
Au       2.54152044      -4.79016864      -0.67315542 
Au      -2.54148787       4.79013316      -0.67315344 
Au       2.90729025      -1.26436892       2.98075575 
Au      -2.90733030       1.26437998       2.98081164 
Au      -1.79101088      -3.48701215      -1.42243051 
Au       1.79104885       3.48700495      -1.42244912 
