20
-1553.339987
Au       4.03674344       0.00254247       0.07510043 
Au      -4.03674343      -0.00254247       0.07510043 
Au      -0.00380811       3.51085612       0.06073901 
Au       0.00380811      -3.51085611       0.06073901 
Au       2.21124847       1.94666846       0.09846453 
Au      -2.21124847      -1.94666845       0.09846453 
Au      -2.21377168       1.94353048       0.09512398 
Au       2.21377168      -1.94353048       0.09512398 
Au      -2.35304070      -4.54504819      -0.28745872 
Au       2.35304070       4.54504819      -0.28745873 
Au       2.35339188      -4.52759123      -0.37760105 
Au      -2.35339187       4.52759123      -0.37760105 
Au      -0.00052271       1.35745615       1.55768588 
Au       0.00052271      -1.35745615       1.55768588 
Au      -2.22541071      -0.00030577       1.93172766 
Au       2.22541071       0.00030576       1.93172766 
Au      -0.00200261       1.32399870      -1.36566237 
Au       0.00200261      -1.32399870      -1.36566237 
Au       2.23827721       0.00414857      -1.78811936 
Au      -2.23827721      -0.00414857      -1.78811936 
