20
-1552.882114
Au       3.19819883       0.00000000      -0.00000000 
Au      -3.19819886       0.00000000       0.00000000 
Au      -0.00000000       3.19819887      -0.00000000 
Au      -0.00000000      -3.19819884       0.00000000 
Au       1.37741376       1.37723379       1.31731287 
Au      -1.37741377      -1.37723400       1.31731313 
Au      -1.37723405       1.37741373       1.31731314 
Au       1.37723380      -1.37741380       1.31731292 
Au      -1.37741373       1.37723401      -1.31731310 
Au       1.37741380      -1.37723378      -1.31731290 
Au       1.37723404       1.37741377      -1.31731317 
Au      -1.37723381      -1.37741376      -1.31731289 
Au      -0.00244081      -1.85932069       3.54553220 
Au       0.00244080       1.85932070       3.54553221 
Au       1.85932070      -0.00244081       3.54553221 
Au      -1.85932069       0.00244081       3.54553220 
Au       0.00244080      -1.85932070      -3.54553221 
Au      -0.00244081       1.85932069      -3.54553220 
Au      -1.85932070      -0.00244080      -3.54553221 
Au       1.85932069       0.00244081      -3.54553220 
