20
-1553.639654
Au      -1.82598402      -1.82598551       0.00000689 
Au       1.82598382       1.82598535       0.00000664 
Au       1.82598269      -1.82598439      -0.00000485 
Au      -1.82598240       1.82598417      -0.00000482 
Au       1.86104924       0.00000863      -1.98171353 
Au      -1.86104851      -0.00000726      -1.98171382 
Au      -0.00005833       1.86104907      -1.98171413 
Au       0.00005790      -1.86104951      -1.98171398 
Au      -1.86104969       0.00003336       1.98171247 
Au       1.86104899      -0.00003194       1.98171246 
Au       0.00003340       1.86105023       1.98171292 
Au      -0.00003337      -1.86105117       1.98171258 
Au       2.48912651       2.48899801       2.45102810 
Au      -2.48912718      -2.48899782       2.45102817 
Au      -2.48899408       2.48913019       2.45102888 
Au       2.48899517      -2.48913072       2.45102896 
Au      -2.48911520       2.48898631      -2.45102405 
Au       2.48911618      -2.48898704      -2.45102421 
Au       2.48900451       2.48914095      -2.45103232 
Au      -2.48900564      -2.48914091      -2.45103237 
