20
-1545.179557
Au      -0.00000000       0.00000000       4.57876253 
Au       0.00000000       0.00000000      -4.57876253 
Au      -0.00000000      -0.00000000      -1.97047680 
Au       0.00000000      -0.00000000       1.97047680 
Au      -0.00000000       1.90697187      -0.00000000 
Au       0.00000000      -1.90697187      -0.00000000 
Au       0.00000000       4.54636846       0.00000000 
Au      -0.00000000      -4.54636846       0.00000000 
Au      -4.44966743      -0.00000000       0.00000000 
Au       4.44966743       0.00000000       0.00000000 
Au       1.88515737      -0.00000000       0.00000000 
Au      -1.88515738       0.00000000      -0.00000000 
Au      -1.87414194      -1.85118973       1.81855935 
Au       1.87414194       1.85118973       1.81855935 
Au       1.87414194      -1.85118973      -1.81855935 
Au      -1.87414194       1.85118974      -1.81855935 
Au       1.93560938       1.94534286      -1.70305027 
Au      -1.93560938      -1.94534286      -1.70305027 
Au      -1.93560938       1.94534286       1.70305027 
Au       1.93560938      -1.94534286       1.70305027 
