20
-1546.665516
Au       1.90492683      -0.00000000       0.00000000 
Au      -1.90492683       0.00000000      -0.00000000 
Au       0.00000000       1.90492748       0.00000000 
Au      -0.00000000      -1.90492748      -0.00000000 
Au      -2.52201956      -2.52201757       0.00000000 
Au       2.52201956       2.52201757       0.00000000 
Au       2.52201956      -2.52201757      -0.00000000 
Au      -2.52201956       2.52201757       0.00000000 
Au      -4.33144541      -4.33144711      -0.00000000 
Au       4.33144541       4.33144711       0.00000000 
Au       4.33144541      -4.33144711       0.00000000 
Au      -4.33144541       4.33144711       0.00000000 
Au      -1.84892355      -0.00000000       2.58459809 
Au       1.84892355       0.00000000       2.58459809 
Au      -0.00000000      -1.84892311       2.58459813 
Au      -0.00000000       1.84892311       2.58459813 
Au       1.84892355       0.00000000      -2.58459809 
Au      -1.84892355      -0.00000000      -2.58459809 
Au       0.00000000      -1.84892311      -2.58459813 
Au      -0.00000000       1.84892311      -2.58459813 
