20
-1549.148376
Au      -0.00000000       0.00000000       4.84681794 
Au       0.00000000       0.00000000      -4.84681794 
Au      -0.00000000       0.00000000      -2.24888549 
Au       0.00000000       0.00000000       2.24888549 
Au       0.00000000       1.35632802       0.00000000 
Au      -0.00000000      -1.35632802       0.00000000 
Au       0.00000000      -3.96940526      -0.00000000 
Au      -0.00000000       3.96940526       0.00000000 
Au      -4.80775380       0.00000000       0.00000000 
Au       4.80775380      -0.00000000       0.00000000 
Au       2.24770325      -0.00000000       0.00000000 
Au      -2.24770325       0.00000000       0.00000000 
Au       1.99726061       1.67006324      -1.95693101 
Au      -1.99726061      -1.67006324      -1.95693101 
Au      -1.99726061       1.67006323       1.95693101 
Au       1.99726061      -1.67006324       1.95693101 
Au       0.35504771      -2.71371866      -2.25558645 
Au      -0.35504771       2.71371866      -2.25558645 
Au      -0.35504771      -2.71371866       2.25558645 
Au       0.35504771       2.71371866       2.25558645 
