20
-1552.718875
Au      -0.00000000       0.00000000       3.81643835 
Au       0.00000000      -0.00000000      -3.81643835 
Au       0.00000000       0.00000000      -1.25243168 
Au      -0.00000000       0.00000000       1.25243168 
Au       0.00000000      -5.13143101      -0.00000000 
Au       0.00000000       5.13143101      -0.00000000 
Au       0.00000000      -2.53462930       0.00000000 
Au      -0.00000000       2.53462930      -0.00000000 
Au       2.25735887       1.29571939       0.00471068 
Au      -2.25735887      -1.29571939       0.00471068 
Au      -2.25735887       1.29571939      -0.00471068 
Au       2.25735887      -1.29571939      -0.00471068 
Au      -1.31991392       1.93290326       2.39956467 
Au       1.31991392      -1.93290326       2.39956467 
Au       1.31991392       1.93290326      -2.39956467 
Au      -1.31991392      -1.93290326      -2.39956467 
Au      -1.31033014      -1.93799299       2.40351756 
Au       1.31033014       1.93799299       2.40351756 
Au       1.31033014      -1.93799299      -2.40351756 
Au      -1.31033014       1.93799299      -2.40351756 
