20
-1552.440062
Au      -0.00000003      -0.00000000      -1.28214011 
Au      -0.00000001      -0.00000000       1.28214011 
Au      -0.00000000      -0.00000000      -3.87499285 
Au       0.00000000      -0.00000000       3.87499285 
Au       0.00000000      -4.96141209       0.00000000 
Au       0.00000000       4.96141209      -0.00000000 
Au      -0.00000000       2.36514743       0.00000000 
Au      -0.00000000      -2.36514742      -0.00000000 
Au       2.29540661      -1.08861356       0.75551500 
Au      -2.29540661       1.08861356       0.75551500 
Au      -2.29540660      -1.08861355      -0.75551500 
Au       2.29540662       1.08861356      -0.75551500 
Au      -1.98390275      -1.58613198       1.81394073 
Au       1.98390276       1.58613199       1.81394073 
Au       1.98390276      -1.58613199      -1.81394073 
Au      -1.98390275       1.58613198      -1.81394073 
Au      -0.54336977       2.21000186       2.57628395 
Au       0.54336977      -2.21000186       2.57628395 
Au       0.54336977       2.21000186      -2.57628395 
Au      -0.54336977      -2.21000185      -2.57628395 
