20
-1552.75686
Au      -0.00000000       0.00000000       2.47880717 
Au      -0.00000000      -0.00000000      -2.47880717 
Au      -0.00000000       0.00000000       5.08260211 
Au       0.00000000       0.00000000      -5.08260211 
Au      -0.00000000       3.83008926       0.00000000 
Au       0.00000000      -3.83008926      -0.00000000 
Au      -0.00000000       1.25646858       0.00000000 
Au      -0.00000000      -1.25646858      -0.00000000 
Au       1.19545256      -2.50806969      -1.96169234 
Au      -1.19545256       2.50806969      -1.96169234 
Au      -1.19545256      -2.50806969       1.96169234 
Au       1.19545256       2.50806969       1.96169234 
Au      -2.29444181       2.30707021       0.48481702 
Au       2.29444181      -2.30707021       0.48481702 
Au       2.29444181       2.30707021      -0.48481702 
Au      -2.29444181      -2.30707021      -0.48481702 
Au       2.29261543       0.22461445       1.27319581 
Au      -2.29261543      -0.22461445       1.27319581 
Au      -2.29261543       0.22461445      -1.27319581 
Au       2.29261543      -0.22461445      -1.27319581 
