20
-1553.703898
Au       0.00000000       0.00000000      -3.91395179 
Au      -0.00000000      -0.00000000       3.91395179 
Au       0.00000000       0.00000000      -1.30152382 
Au       0.00000000       0.00000000       1.30152382 
Au       0.00000000       4.05680569      -0.00000000 
Au       0.00000000      -4.05680569       0.00000000 
Au       2.32474663       0.00000000       0.00000000 
Au      -2.32474663       0.00000000      -0.00000000 
Au       1.40100189      -2.23829470      -1.29276868 
Au      -1.40100189       2.23829470      -1.29276868 
Au      -1.40100189      -2.23829470       1.29276868 
Au       1.40100189       2.23829470       1.29276868 
Au       2.26883477       0.01525261       2.60645962 
Au      -2.26883477      -0.01525261       2.60645962 
Au      -2.26883477       0.01525261      -2.60645962 
Au       2.26883477      -0.01525261      -2.60645962 
Au       1.41283884       2.24469918      -1.36078168 
Au      -1.41283884      -2.24469918      -1.36078168 
Au      -1.41283884       2.24469918       1.36078168 
Au       1.41283884      -2.24469918       1.36078168 
