20
-1553.358472
Au      -0.00000002       0.00000001       3.93614820 
Au       0.00000003       0.00000000      -3.93614821 
Au       0.00000000       0.00000010       1.33424167 
Au      -0.00000012       0.00000005      -1.33424170 
Au      -0.00000000      -2.25546003       0.00000001 
Au      -0.00000000       2.25546013       0.00000004 
Au       2.24101418       0.00000006      -0.00000020 
Au      -2.24101416       0.00000087       0.00000154 
Au      -0.31487736      -4.51218908      -1.27606189 
Au       0.31487735       4.51218910      -1.27606189 
Au       0.31487736      -4.51218908       1.27606189 
Au      -0.31487734       4.51218912       1.27606188 
Au       0.59015860      -2.24192874       2.60810041 
Au      -0.59015890       2.24192806       2.60809977 
Au      -0.59015825      -2.24192923      -2.60810096 
Au       0.59015865       2.24192854      -2.60810024 
Au       2.26960770       0.16748293      -2.61231900 
Au      -2.26960766      -0.16748289      -2.61231926 
Au      -2.26960767       0.16748296       2.61231886 
Au       2.26960764      -0.16748288       2.61231908 
